// Generated for: spectre
// Generated on: Apr 12 21:13:40 2015
// Design library name: 16nm_Tests
// Design cell name: 6T_SDP_BANK_Test
// Design view name: config
simulator lang=spectre
global 0 vdd! vcc!
