// Generated for: spectre
// Generated on: May 21 03:39:19 2015
// Design library name: 20nm
// Design cell name: Dual_Supply_Test
// Design view name: schematic
simulator lang=spectre
global 0 vdd! vcc!
