// Generated for: spectre
// Generated on: May 21 13:25:21 2015
// Design library name: 20nm
// Design cell name: Dual_Supply_Word_Test
// Design view name: schematic
simulator lang=spectre
global 0 vdd! vcc!
