
// This is the Cadence AMS Designer(R) analog simulation control file. 
// It specifies the options and analyses for the UltraSim analog solver.

simulator lang=spectre 

global 0 vdd! vcc!

ic MC_6TWrite_Test.ICHUNK.IARRAY0.B1P1=vdd \
MC_6TWrite_Test.ICHUNK.IARRAY0.B0P1=vdd \
MC_6TWrite_Test.ICHUNK.IARRAY0.ISRAM0.I7.I3.Q0=vdd \
MC_6TWrite_Test.ICHUNK.IARRAY0.ISRAM0.I7.I3.Q1=0 
simulatorOptions options temp=27.0 tnom=27 scale=1.0 scalem=1.0

// UltraSim Solver Options 
usim_opt output_upper=0 ade=1 wf_spectre_syntax=1
