// Generated for: spectre
// Generated on: Apr 18 00:31:29 2015
// Design library name: 16nm_Tests
// Design cell name: inv_Test
// Design view name: schematic
simulator lang=spectre
global 0 vdd!
