// Generated for: spectre
// Generated on: Apr 24 08:30:28 2015
// Design library name: 16nm_Tests
// Design cell name: inv_Test
// Design view name: schematic
simulator lang=spectre
global 0 vdd!
