simulator lang=spectre
include "tsmc18dN.scs"
include "tsmc18dP.scs"
