simulator lang=spectre
include "nfet.scs"
include "pfet.scs"
