// Generated for: spectre
// Generated on: Apr 20 01:22:33 2015
// Design library name: 16nm_Tests
// Design cell name: 6T_DataPath_Test
// Design view name: config
simulator lang=spectre
global 0 vdd! vcc!
parameters vdd=0.850
include "/software/cadence/ncsu-FreePDK15/hspice_16nm_hp.include"
// BEGIN Flat Interface Elements
// Flattened IE at /net031<0> uses port path 99999
// Flattened IE at /net027<5> uses port path 99998
// Flattened IE at /net031<10> uses port path 99997
// Flattened IE at /net031<11> uses port path 99996
// Flattened IE at /net031<1> uses port path 99995
// Flattened IE at /net027<7> uses port path 99994
// Flattened IE at /net027<2> uses port path 99993
// Flattened IE at /net41<0> uses port path 99992
// Flattened IE at /net027<0> uses port path 99991
// Flattened IE at /net44<5> uses port path 99990
// Flattened IE at /net44<3> uses port path 99989
// Flattened IE at /net021 uses port path 99988
// Flattened IE at /net020 uses port path 99987
// Flattened IE at /net031<8> uses port path 99986
// Flattened IE at /net031<4> uses port path 99985
// Flattened IE at /net031<14> uses port path 99984
// Flattened IE at /net027<4> uses port path 99983
// Flattened IE at /net031<15> uses port path 99982
// Flattened IE at /net44<0> uses port path 99981
// Flattened IE at /net44<1> uses port path 99980
// Flattened IE at /net44<6> uses port path 99979
// Flattened IE at /net40<0> uses port path 99978
// Flattened IE at /net44<7> uses port path 99977
// Flattened IE at /net031<12> uses port path 99976
// Flattened IE at /net027<1> uses port path 99975
// Flattened IE at /net031<13> uses port path 99974
// Flattened IE at /net031<2> uses port path 99973
// Flattened IE at /net031<3> uses port path 99972
// Flattened IE at /net031<6> uses port path 99971
// Flattened IE at /net031<9> uses port path 99970
// Flattened IE at /net031<7> uses port path 99969
// Flattened IE at /net027<6> uses port path 99968
// Flattened IE at /net027<3> uses port path 99967
// Flattened IE at /net031<5> uses port path 99966
// Flattened IE at /net036<0> uses port path 99965
// Flattened IE at /net036<1> uses port path 99964
// Flattened IE at /net44<4> uses port path 99963
// Flattened IE at /net44<2> uses port path 99962
// Flattened IE at /net41<1> uses port path 99961
// Flattened IE at /net40<1> uses port path 99960
// END Flat Interface Elements

// Library name: 16nm
// Cell name: inv_1x
// View name: schematic
// Inherited view list: spectre spice verilog behavioral functional hdl
//system verilogNetlist schematic cmos.sch cmos_sch veriloga ahdl
subckt inv_1x A Y
    M0 (Y A 0 0) nfet w=60n l=20n nfin=1 m=1 degradation=no
    M1 (Y A vdd! vdd!) pfet w=100n l=20n nfin=1 m=1 degradation=no
ends inv_1x
// End of subcircuit definition.

// Library name: 16nm
// Cell name: TH22~
// View name: schematic
// Inherited view list: spectre spice verilog behavioral functional hdl
//system verilogNetlist schematic cmos.sch cmos_sch veriloga ahdl
subckt _sub38 A B Y
    I6 (net010 Y) inv_1x
    M5 (net010 net5 0 0) nfet w=48n l=16n nfin=1 m=1 degradation=no
    M4 (net5 net010 net9 0) nfet w=48n l=16n nfin=1 m=1 degradation=no
    M3 (net9 B 0 0) nfet w=48n l=16n nfin=1 m=1 degradation=no
    M2 (net9 A 0 0) nfet w=48n l=16n nfin=1 m=1 degradation=no
    M1 (net5 B net17 0) nfet w=80n l=16n nfin=1 m=1 degradation=no
    M0 (net17 A 0 0) nfet w=80n l=16n nfin=1 m=1 degradation=no
    M11 (net010 net5 vdd! vdd!) pfet w=80n l=16n nfin=1 m=1 \
        degradation=yes
    M10 (net5 B net032 vdd!) pfet w=160n l=16n nfin=1 m=1 \
        degradation=yes
    M9 (net032 A vdd! vdd!) pfet w=160n l=16n nfin=1 m=1 \
        degradation=yes
    M8 (net037 B vdd! vdd!) pfet w=80n l=16n nfin=1 m=1 degradation=yes
    M7 (net037 A vdd! vdd!) pfet w=80n l=16n nfin=1 m=1 degradation=yes
    M6 (net5 net010 net037 vdd!) pfet w=80n l=16n nfin=1 m=1 \
        degradation=yes
ends _sub38
// End of subcircuit definition.

// Library name: 16nm
// Cell name: nand_1x
// View name: schematic
// Inherited view list: spectre spice verilog behavioral functional hdl
//system verilogNetlist schematic cmos.sch cmos_sch veriloga ahdl
subckt nand_1x A B Y
    M1 (Y B vdd! vdd!) pfet w=100n l=20n nfin=1 m=1 degradation=no
    M0 (Y A vdd! vdd!) pfet w=100n l=20n nfin=1 m=1 degradation=no
    M3 (net22 B 0 0) nfet w=120n l=20n nfin=1 m=1 degradation=no
    M2 (Y A net22 0) nfet w=120n l=20n nfin=1 m=1 degradation=no
ends nand_1x
// End of subcircuit definition.

// Library name: 16nm
// Cell name: nor_1x
// View name: schematic
// Inherited view list: spectre spice verilog behavioral functional hdl
//system verilogNetlist schematic cmos.sch cmos_sch veriloga ahdl
subckt nor_1x A B Y
    M3 (Y B or_pd_ps vdd!) pfet w=200n l=20n nfin=1 m=1 degradation=yes
    M2 (or_pd_ps A vdd! vdd!) pfet w=200n l=20n nfin=1 m=1 \
        degradation=yes
    M1 (Y B 0 0) nfet w=60n l=20n nfin=1 m=1 degradation=no
    M0 (Y A 0 0) nfet w=60n l=20n nfin=1 m=1 degradation=no
ends nor_1x
// End of subcircuit definition.

// Library name: 16nm
// Cell name: or_1x
// View name: schematic
// Inherited view list: spectre spice verilog behavioral functional hdl
//system verilogNetlist schematic cmos.sch cmos_sch veriloga ahdl
subckt or_1x A B Y
    I6 (A B AnorB) nor_1x
    I7 (AnorB Y) inv_1x
ends or_1x
// End of subcircuit definition.

// Library name: 16nm
// Cell name: inv_weak_1x
// View name: schematic
// Inherited view list: spectre spice verilog behavioral functional hdl
//system verilogNetlist schematic cmos.sch cmos_sch veriloga ahdl
subckt inv_weak_1x A Y
    M2 (net13 vdd! 0 0) nfet w=60n l=20n nfin=1 ls=105n  m=1 \
        degradation=no
    M0 (Y A net13 0) nfet w=60n l=20n nfin=1 ls=105n  m=1 \
        degradation=no
    M3 (net14 0 vdd! vdd!) pfet w=100n l=20n nfin=1 m=1 degradation=yes
    M1 (Y A net14 vdd!) pfet w=100n l=20n nfin=1 m=1 degradation=yes
ends inv_weak_1x
// End of subcircuit definition.

// Library name: 16nm
// Cell name: TH22
// View name: schematic
// Inherited view list: spectre spice verilog behavioral functional hdl
//system verilogNetlist schematic cmos.sch cmos_sch veriloga ahdl
subckt TH22 A B Y
    M5 (Y net5 0 0) nfet w=60n l=20n nfin=1 m=1 degradation=no
    M4 (net5 Y net9 0) nfet w=120n l=20n nfin=1 m=1 degradation=no
    M3 (net9 B 0 0) nfet w=120n l=20n nfin=1 m=1 degradation=no
    M2 (net9 A 0 0) nfet w=120n l=20n nfin=1 m=1 degradation=no
    M1 (net5 B net17 0) nfet w=120n l=20n nfin=1 m=1 degradation=no
    M0 (net17 A 0 0) nfet w=120n l=20n nfin=1 m=1 degradation=no
    M11 (Y net5 vdd! vdd!) pfet w=100n l=20n nfin=1 m=1 degradation=yes
    M10 (net5 B net032 vdd!) pfet w=200n l=20n nfin=1 m=1 \
        degradation=yes
    M9 (net032 A vdd! vdd!) pfet w=200n l=20n nfin=1 m=1 \
        degradation=yes
    M8 (net037 B vdd! vdd!) pfet w=200n l=20n nfin=1 m=1 \
        degradation=yes
    M7 (net037 A vdd! vdd!) pfet w=200n l=20n nfin=1 m=1 \
        degradation=yes
    M6 (net5 Y net037 vdd!) pfet w=200n l=20n nfin=1 m=1 \
        degradation=yes
ends TH22
// End of subcircuit definition.

// Library name: 16nm
// Cell name: PCHBd
// View name: schematic
// Inherited view list: spectre spice verilog behavioral functional hdl
//system verilogNetlist schematic cmos.sch cmos_sch veriloga ahdl
subckt PCHBd Ai Ai\+1 R0i R0i\+1 R1i R1i\+1
    I32 (net019 R0i\+1) inv_1x
    I5 (net032 R1i\+1) inv_1x
    I12 (net031 net030 Ai) _sub38
    M16 (net019 R0i net034 0) nfet w=60n l=20n nfin=1 m=1 \
        degradation=no
    M3 (net032 R1i net033 0) nfet w=60n l=20n nfin=1 m=1 degradation=no
    M4 (net034 net022 0 0) nfet w=60n l=20n nfin=1 m=1 degradation=no
    M5 (net033 net022 0 0) nfet w=60n l=20n nfin=1 m=1 degradation=no
    M10 (net019 net022 vdd! vdd!) pfet w=200n l=20n nfin=1 m=1 \
        degradation=yes
    M1 (net032 net022 vdd! vdd!) pfet w=200n l=20n nfin=1 m=1 \
        degradation=yes
    I6 (net032 net019 net031) nand_1x
    I9 (R0i R1i net030) or_1x
    I2 (R0i\+1 net019) inv_weak_1x
    I33 (R1i\+1 net032) inv_weak_1x
    I30 (Ai Ai\+1 net022) TH22
ends PCHBd
// End of subcircuit definition.

// Library name: 16nm
// Cell name: WCHB
// View name: schematic
// Inherited view list: spectre spice verilog behavioral functional hdl
//system verilogNetlist schematic cmos.sch cmos_sch veriloga ahdl
subckt WCHB L0 L1 Lack R0 R1 Rack
    I1 (Rack L1 R1) TH22
    I0 (L0 Rack R0) TH22
    I6 (R1 R0 Lack) nor_1x
ends WCHB
// End of subcircuit definition.

// Library name: 16nm
// Cell name: TH44
// View name: schematic
// Inherited view list: spectre spice verilog behavioral functional hdl
//system verilogNetlist schematic cmos.sch cmos_sch veriloga ahdl
subckt TH44 A B C D Y
    M19 (net13 A 0 0) nfet w=120n l=20n nfin=1 m=1 degradation=no
    M18 (net13 B 0 0) nfet w=120n l=20n nfin=1 m=1 degradation=no
    M17 (net13 C 0 0) nfet w=120n l=20n nfin=1 m=1 degradation=no
    M16 (net13 D 0 0) nfet w=120n l=20n nfin=1 m=1 degradation=no
    M15 (Y net19 0 0) nfet w=60n l=20n nfin=1 m=1 degradation=no
    M14 (net42 A 0 0) nfet w=240n l=20n nfin=1 m=1 degradation=no
    M13 (net43 B net42 0) nfet w=240n l=20n nfin=1 m=1 degradation=no
    M12 (net44 C net43 0) nfet w=240n l=20n nfin=1 m=1 degradation=no
    M11 (net19 D net44 0) nfet w=240n l=20n nfin=1 m=1 degradation=no
    M10 (net19 Y net13 0) nfet w=120n l=20n nfin=1 m=1 degradation=no
    M9 (Y net19 vdd! vdd!) pfet w=100n l=20n nfin=1 m=1 degradation=yes
    M8 (net19 Y net15 vdd!) pfet w=200n l=20n nfin=1 m=1 \
        degradation=yes
    M7 (net15 D vdd! vdd!) pfet w=200n l=20n nfin=1 m=1 degradation=yes
    M6 (net15 C vdd! vdd!) pfet w=200n l=20n nfin=1 m=1 degradation=yes
    M5 (net15 B vdd! vdd!) pfet w=200n l=20n nfin=1 m=1 degradation=yes
    M4 (net15 A vdd! vdd!) pfet w=200n l=20n nfin=1 m=1 degradation=yes
    M3 (net19 D net45 vdd!) pfet w=320n l=20n nfin=1 m=1 \
        degradation=yes
    M2 (net45 C net46 vdd!) pfet w=320n l=20n nfin=1 m=1 \
        degradation=yes
    M1 (net46 B net47 vdd!) pfet w=320n l=20n nfin=1 m=1 \
        degradation=yes
    M0 (net47 A vdd! vdd!) pfet w=320n l=20n nfin=1 m=1 degradation=yes
ends TH44
// End of subcircuit definition.

// Library name: 16nm
// Cell name: and_1x
// View name: schematic
// Inherited view list: spectre spice verilog behavioral functional hdl
//system verilogNetlist schematic cmos.sch cmos_sch veriloga ahdl
subckt and_1x A B Y
    I7 (A B ntYbar) nand_1x
    I6 (ntYbar Y) inv_1x
ends and_1x
// End of subcircuit definition.

// Library name: 16nm
// Cell name: THaC
// View name: schematic
// Inherited view list: spectre spice verilog behavioral functional hdl
//system verilogNetlist schematic cmos.sch cmos_sch veriloga ahdl
subckt THaC A B\+ C\- Y
    M8 (net11 A 0 A) nfet w=120n l=20n nfin=1 m=1 degradation=no
    M5 (net7 A net33 A) nfet w=120n l=20n nfin=1 m=1 degradation=no
    M6 (net7 net021 net11 net021) nfet w=120n l=20n nfin=1 m=1 \
        degradation=no
    M9 (net11 C\- 0 C\-) nfet w=120n l=20n nfin=1 m=1 degradation=no
    M7 (net33 \~B\+ 0 \~B\+) nfet w=120n l=20n nfin=1 m=1 \
        degradation=no
    I2 (net7 net021) inv_1x
    I9 (B\+ \~B\+) inv_1x
    I8 (net021 Y) inv_1x
    M4 (net7 net021 net17 net021) pfet w=100n l=20n nfin=1 m=1 \
        degradation=yes
    M3 (net7 C\- net32 C\-) pfet w=100n l=20n nfin=1 m=1 \
        degradation=yes
    M0 (net32 A vdd! A) pfet w=100n l=20n nfin=1 m=1 degradation=yes
    M2 (net17 \~B\+ vdd! \~B\+) pfet w=100n l=20n nfin=1 m=1 \
        degradation=yes
    M1 (net17 A vdd! A) pfet w=100n l=20n nfin=1 m=1 degradation=yes
ends THaC
// End of subcircuit definition.

// Library name: 16nm
// Cell name: PCHB_FIFO
// View name: schematic
// Inherited view list: spectre spice verilog behavioral functional hdl
//system verilogNetlist schematic cmos.sch cmos_sch veriloga ahdl
subckt PCHB_FIFO outAck R0i R0i\+1 R1i R1i\+1 W0 W1
    I5 (net029 R1i\+1) inv_1x
    I4 (net18 R0i\+1) inv_1x
    I12 (inValid inAck outValid outAck) THaC
    M5 (net026 oE 0 0) nfet w=60n l=20n nfin=1 m=1 degradation=no
    M4 (net22 oE 0 0) nfet w=60n l=20n nfin=1 m=1 degradation=no
    M3 (net029 R1i net026 0) nfet w=60n l=20n nfin=1 m=1 degradation=no
    M2 (net18 R0i net22 0) nfet w=60n l=20n nfin=1 m=1 degradation=no
    M1 (net029 oE vdd! vdd!) pfet w=200n l=20n nfin=1 m=1 \
        degradation=yes
    M0 (net18 oE vdd! vdd!) pfet w=200n l=20n nfin=1 m=1 \
        degradation=yes
    I6 (net029 net18 outValid) nand_1x
    I9 (R0i R1i inValid) or_1x
    I2 (R0i\+1 net18) inv_weak_1x
    I3 (R1i\+1 net029) inv_weak_1x
    I11 (outAck inAck oE) TH22
    I31 (W1 W0 inAck) nor_1x
ends PCHB_FIFO
// End of subcircuit definition.

// Library name: 16nm
// Cell name: WCHB~
// View name: schematic
// Inherited view list: spectre spice verilog behavioral functional hdl
//system verilogNetlist schematic cmos.sch cmos_sch veriloga ahdl
subckt _sub39 L0 L1 Lack Rack \~R0 \~R1
    I10 (Rack L1 net18) TH22
    I0 (L0 Rack net19) TH22
    I2 (net18 net19 Lack) nor_1x
    I11 (net19 \~R0) inv_1x
    I12 (net18 \~R1) inv_1x
ends _sub39
// End of subcircuit definition.

// Library name: 16nm
// Cell name: 6T_DATA
// View name: schematic
// Inherited view list: spectre spice verilog behavioral functional hdl
//system verilogNetlist schematic cmos.sch cmos_sch veriloga ahdl
subckt _sub40 Ack B0_3 B0_2 B0_1 B0_0 B1_3 B1_2 B1_1 B1_0 Go R1_1of4_3 \
        R1_1of4_2 R1_1of4_1 R1_1of4_0 R2_1of4_3 R2_1of4_2 R2_1of4_1 \
        R2_1of4_0 RW_1 RW_0 Reset ValAddr W0_3 W0_2 W0_1 W0_0 W1_3 W1_2 \
        W1_1 W1_0 W1_1of4_3 W1_1of4_2 W1_1of4_1 W1_1of4_0 W2_1of4_3 \
        W2_1of4_2 W2_1of4_1 W2_1of4_0 AckThruBot AckThruTop RAck_1 \
        RAck_0 WAck_1 WAck_0 \~R0_3 \~R0_2 \~R0_1 \~R0_0 \~R1_3 \~R1_2 \
        \~R1_1 \~R1_0
    I80_3 (Lack_3 RpAck_3 R0_3 R0q_3 R1_3 R1q_3) PCHBd
    I80_2 (Lack_2 RpAck_2 R0_2 R0q_2 R1_2 R1q_2) PCHBd
    I80_1 (Lack_1 RpAck_1 R0_1 R0q_1 R1_1 R1q_1) PCHBd
    I80_0 (Lack_0 RpAck_0 R0_0 R0q_0 R1_0 R1q_0) PCHBd
    I54 (Out0_2 Out1_3 R2_1of4_2) nor_1x
    I53 (Out0_3 Out0_2 R2_1of4_3) nor_1x
    I52 (Out0_3 Out1_2 R2_1of4_1) nor_1x
    I51 (Out1_3 Out1_2 R2_1of4_0) nor_1x
    I50 (Out0_1 Out0_0 R1_1of4_3) nor_1x
    I49 (Out1_1 Out0_0 R1_1of4_2) nor_1x
    I47 (Out1_1 Out1_0 R1_1of4_0) nor_1x
    I48 (Out1_0 Out0_1 R1_1of4_1) nor_1x
    I21 (B0p_0 B1p_0 WLAck_0 B0q_0 B1q_0 wack_0) WCHB
    I24 (B0p_3 B1p_3 WLAck_3 B0q_3 B1q_3 wack_3) WCHB
    I23 (B0p_2 B1p_2 WLAck_2 B0q_2 B1q_2 wack_2) WCHB
    I22 (B0p_1 B1p_1 WLAck_1 B0q_1 B1q_1 wack_1) WCHB
    I43 (Lack_3 Lack_2 Lack_1 Lack_0 intRack) TH44
    I29 (wack_3 wack_2 wack_1 wack_0 intWack) TH44
    I18 (W2_1of4_2 W2_1of4_3 B0p_3) or_1x
    I17 (W2_1of4_0 W2_1of4_1 B1p_3) or_1x
    I11 (W1_1of4_2 W1_1of4_3 B0p_1) or_1x
    I10 (W1_1of4_0 W1_1of4_1 B1p_1) or_1x
    I16 (W2_1of4_1 W2_1of4_3 B0p_2) or_1x
    I15 (W2_1of4_0 W2_1of4_2 B1p_2) or_1x
    I1 (W1_1of4_1 W1_1of4_3 B0p_0) or_1x
    I0 (W1_1of4_0 W1_1of4_2 B1p_0) or_1x
    I78_3 (Wen B0_3 W0_3) and_1x
    I78_2 (Wen B0_2 W0_2) and_1x
    I78_1 (Wen B0_1 W0_1) and_1x
    I78_0 (Wen B0_0 W0_0) and_1x
    I77_3 (Wen B1_3 W1_3) and_1x
    I77_2 (Wen B1_2 W1_2) and_1x
    I77_1 (Wen B1_1 W1_1) and_1x
    I77_0 (Wen B1_0 W1_0) and_1x
    M1_3 (\~R1_3 Go vdd! vdd!) pfet w=100n l=20n nfin=1 m=1 \
        degradation=yes
    M1_2 (\~R1_2 Go vdd! vdd!) pfet w=100n l=20n nfin=1 m=1 \
        degradation=yes
    M1_1 (\~R1_1 Go vdd! vdd!) pfet w=100n l=20n nfin=1 m=1 \
        degradation=yes
    M1_0 (\~R1_0 Go vdd! vdd!) pfet w=100n l=20n nfin=1 m=1 \
        degradation=yes
    M0_3 (\~R0_3 Go vdd! vdd!) pfet w=100n l=20n nfin=1 m=1 \
        degradation=yes
    M0_2 (\~R0_2 Go vdd! vdd!) pfet w=100n l=20n nfin=1 m=1 \
        degradation=yes
    M0_1 (\~R0_1 Go vdd! vdd!) pfet w=100n l=20n nfin=1 m=1 \
        degradation=yes
    M0_0 (\~R0_0 Go vdd! vdd!) pfet w=100n l=20n nfin=1 m=1 \
        degradation=yes
    I35_3 (\~R1_3 R1_3) inv_1x
    I35_2 (\~R1_2 R1_2) inv_1x
    I35_1 (\~R1_1 R1_1) inv_1x
    I35_0 (\~R1_0 R1_0) inv_1x
    I34_3 (\~R0_3 R0_3) inv_1x
    I34_2 (\~R0_2 R0_2) inv_1x
    I34_1 (\~R0_1 R0_1) inv_1x
    I34_0 (\~R0_0 R0_0) inv_1x
    I64 (RAck_0 Rack_0) iprobe
    I63 (RAck_0 Rack_1) iprobe
    I62 (RAck_1 Rack_2) iprobe
    I56 (AckThruBot AckThruTop) iprobe
    I61 (RAck_1 Rack_3) iprobe
    I65 (ValAddr RW_0 Wen) TH22
    I58 (WLAck_1 WLAck_0 WAck_0) TH22
    I38 (ValAddr RW_1 Go) TH22
    I57 (WLAck_3 WLAck_2 WAck_1) TH22
    I73 (wack_0 B0q_0 B0_0 B1q_0 B1_0 W0_0 W1_0) PCHB_FIFO
    I74 (wack_1 B0q_1 B0_1 B1q_1 B1_1 W0_1 W1_1) PCHB_FIFO
    I75 (wack_2 B0q_2 B0_2 B1q_2 B1_2 W0_2 W1_2) PCHB_FIFO
    I76 (wack_3 B0q_3 B0_3 B1q_3 B1_3 W0_3 W1_3) PCHB_FIFO
    I82 (intRack intWack Ack) nand_1x
    I67_3 (R0q_3 R1q_3 RpAck_3 Rack_3 Out0_3 Out1_3) _sub39
    I67_2 (R0q_2 R1q_2 RpAck_2 Rack_2 Out0_2 Out1_2) _sub39
    I67_1 (R0q_1 R1q_1 RpAck_1 Rack_1 Out0_1 Out1_1) _sub39
    I67_0 (R0q_0 R1q_0 RpAck_0 Rack_0 Out0_0 Out1_0) _sub39
ends _sub40
// End of subcircuit definition.

// Library name: 16nm
// Cell name: 6T
// View name: schematic
// Inherited view list: spectre spice verilog behavioral functional hdl
//system verilogNetlist schematic cmos.sch cmos_sch veriloga ahdl
subckt _sub41 A B0 B1
    M5 (Q0 Q1 0 0) nfet w=120n l=20n nfin=2 m=1 degradation=no
    M4 (Q1 Q0 0 0) nfet w=120n l=20n nfin=2 m=1 degradation=no
    M1 (Q1 A B1 0) nfet w=120n l=20n nfin=2 m=1 degradation=no
    M0 (Q0 A B0 0) nfet w=120n l=20n nfin=2 m=1 degradation=no
    M3 (Q0 Q1 vdd! vdd!) pfet w=50n l=20n nfin=1 m=1 degradation=yes
    M2 (Q1 Q0 vdd! vdd!) pfet w=50n l=20n nfin=1 m=1 degradation=yes
ends _sub41
// End of subcircuit definition.

// Library name: 16nm
// Cell name: 6T_4x
// View name: schematic
// Inherited view list: spectre spice verilog behavioral functional hdl
//system verilogNetlist schematic cmos.sch cmos_sch veriloga ahdl
subckt _sub42 A_3 A_2 A_1 A_0 B0 B1
    I3 (A_0 B0 B1) _sub41
    I2 (A_1 B0 B1) _sub41
    I1 (A_2 B0 B1) _sub41
    I0 (A_3 B0 B1) _sub41
ends _sub42
// End of subcircuit definition.

// Library name: 16nm
// Cell name: 6T_32x
// View name: schematic
// Inherited view list: spectre spice verilog behavioral functional hdl
//system verilogNetlist schematic cmos.sch cmos_sch veriloga ahdl
subckt _sub43 A_31 A_30 A_29 A_28 A_27 A_26 A_25 A_24 A_23 A_22 A_21 \
        A_20 A_19 A_18 A_17 A_16 A_15 A_14 A_13 A_12 A_11 A_10 A_9 A_8 \
        A_7 A_6 A_5 A_4 A_3 A_2 A_1 A_0 B0 B1
    I7 (A_3 A_2 A_1 A_0 B0 B1) _sub42
    I6 (A_7 A_6 A_5 A_4 B0 B1) _sub42
    I5 (A_11 A_10 A_9 A_8 B0 B1) _sub42
    I4 (A_15 A_14 A_13 A_12 B0 B1) _sub42
    I3 (A_19 A_18 A_17 A_16 B0 B1) _sub42
    I2 (A_23 A_22 A_21 A_20 B0 B1) _sub42
    I1 (A_27 A_26 A_25 A_24 B0 B1) _sub42
    I0 (A_31 A_30 A_29 A_28 B0 B1) _sub42
ends _sub43
// End of subcircuit definition.

// Library name: 16nm
// Cell name: 6T_32x_CTRL
// View name: schematic
// Inherited view list: spectre spice verilog behavioral functional hdl
//system verilogNetlist schematic cmos.sch cmos_sch veriloga ahdl
subckt _sub44 B0 B1 S W0 W1
    M10 (B1 B0 net22 vdd!) pfet w=100n l=20n nfin=1 m=1 degradation=yes
    M9 (net22 W0 vdd! vdd!) pfet w=100n l=20n nfin=1 m=1 \
        degradation=yes
    M8 (B0 B1 net23 vdd!) pfet w=100n l=20n nfin=1 m=1 degradation=yes
    M7 (net23 W1 vdd! vdd!) pfet w=100n l=20n nfin=1 m=1 \
        degradation=yes
    M2 (B1 S vdd! vdd!) pfet w=50n l=20n nfin=1 m=1 degradation=yes
    M0 (B0 S vdd! vdd!) pfet w=50n l=20n nfin=1 m=1 degradation=yes
    M6 (B1 W0 net24 0) nfet w=120n l=20n nfin=2 m=1 degradation=no
    M5 (net24 S 0 0) nfet w=120n l=20n nfin=2 m=1 degradation=no
    M4 (net25 S 0 0) nfet w=120n l=20n nfin=2 m=1 degradation=no
    M3 (B0 W1 net25 0) nfet w=120n l=20n nfin=2 m=1 degradation=no
ends _sub44
// End of subcircuit definition.

// Library name: 16nm
// Cell name: nand4_1x
// View name: schematic
// Inherited view list: spectre spice verilog behavioral functional hdl
//system verilogNetlist schematic cmos.sch cmos_sch veriloga ahdl
subckt nand4_1x A B C D Y
    M5 (Y D vdd! vdd!) pfet w=100n l=20n nfin=1 m=1 degradation=no
    M4 (Y C vdd! vdd!) pfet w=100n l=20n nfin=1 m=1 degradation=no
    M1 (Y B vdd! vdd!) pfet w=100n l=20n nfin=1 m=1 degradation=no
    M0 (Y A vdd! vdd!) pfet w=100n l=20n nfin=1 m=1 degradation=no
    M7 (net23 D 0 0) nfet w=240n l=20n nfin=1 m=1 degradation=no
    M6 (net25 C net23 0) nfet w=240n l=20n nfin=1 m=1 degradation=no
    M3 (net24 B net25 0) nfet w=240n l=20n nfin=1 m=1 degradation=no
    M2 (Y A net24 0) nfet w=240n l=20n nfin=1 m=1 degradation=no
ends nand4_1x
// End of subcircuit definition.

// Library name: 16nm
// Cell name: 6T_32x4
// View name: schematic
// Inherited view list: spectre spice verilog behavioral functional hdl
//system verilogNetlist schematic cmos.sch cmos_sch veriloga ahdl
subckt _sub45 A_31 A_30 A_29 A_28 A_27 A_26 A_25 A_24 A_23 A_22 A_21 \
        A_20 A_19 A_18 A_17 A_16 A_15 A_14 A_13 A_12 A_11 A_10 A_9 A_8 \
        A_7 A_6 A_5 A_4 A_3 A_2 A_1 A_0 B0 B1 S_3 S_2 S_1 S_0 W0 W1 SM0 \
        SM1
    I3 (A_31 A_30 A_29 A_28 A_27 A_26 A_25 A_24 A_23 A_22 A_21 A_20 \
        A_19 A_18 A_17 A_16 A_15 A_14 A_13 A_12 A_11 A_10 A_9 A_8 A_7 \
        A_6 A_5 A_4 A_3 A_2 A_1 A_0 B0P4 B1P4) _sub43
    I1 (A_31 A_30 A_29 A_28 A_27 A_26 A_25 A_24 A_23 A_22 A_21 A_20 \
        A_19 A_18 A_17 A_16 A_15 A_14 A_13 A_12 A_11 A_10 A_9 A_8 A_7 \
        A_6 A_5 A_4 A_3 A_2 A_1 A_0 B0P2 B1P2) _sub43
    I2 (A_31 A_30 A_29 A_28 A_27 A_26 A_25 A_24 A_23 A_22 A_21 A_20 \
        A_19 A_18 A_17 A_16 A_15 A_14 A_13 A_12 A_11 A_10 A_9 A_8 A_7 \
        A_6 A_5 A_4 A_3 A_2 A_1 A_0 B0P3 B1P3) _sub43
    I0 (A_31 A_30 A_29 A_28 A_27 A_26 A_25 A_24 A_23 A_22 A_21 A_20 \
        A_19 A_18 A_17 A_16 A_15 A_14 A_13 A_12 A_11 A_10 A_9 A_8 A_7 \
        A_6 A_5 A_4 A_3 A_2 A_1 A_0 B0P1 B1P1) _sub43
    M0 (B0P1 S_0 net67 0) nfet w=120n l=20n nfin=1 m=1 degradation=no
    M1 (net67 B0 0 0) nfet w=120n l=20n nfin=1 m=1 degradation=no
    M2 (net66 B1 0 0) nfet w=120n l=20n nfin=1 m=1 degradation=no
    M8 (B1P2 B1 net65 0) nfet w=120n l=20n nfin=1 m=1 degradation=no
    M9 (net65 S_1 0 0) nfet w=120n l=20n nfin=1 m=1 degradation=no
    M10 (net64 S_1 0 0) nfet w=120n l=20n nfin=1 m=1 degradation=no
    M11 (B0P2 B0 net64 0) nfet w=120n l=20n nfin=1 m=1 degradation=no
    M12 (B0P3 B0 net63 0) nfet w=120n l=20n nfin=1 m=1 degradation=no
    M13 (net63 S_2 0 0) nfet w=120n l=20n nfin=1 m=1 degradation=no
    M14 (net62 S_2 0 0) nfet w=120n l=20n nfin=1 m=1 degradation=no
    M15 (B1P3 B1 net62 0) nfet w=120n l=20n nfin=1 m=1 degradation=no
    M16 (B1P4 B1 net61 0) nfet w=120n l=20n nfin=1 m=1 degradation=no
    M17 (net61 S_3 0 0) nfet w=120n l=20n nfin=1 m=1 degradation=no
    M18 (net60 S_3 0 0) nfet w=120n l=20n nfin=1 m=1 degradation=no
    M19 (B0P4 B0 net60 0) nfet w=120n l=20n nfin=1 m=1 degradation=no
    M3 (B1P1 S_0 net66 0) nfet w=120n l=20n nfin=1 m=1 degradation=no
    I4 (B0P1 B1P1 S_0 W0 W1) _sub44
    I5 (B0P2 B1P2 S_1 W0 W1) _sub44
    I6 (B0P3 B1P3 S_2 W0 W1) _sub44
    I7 (B0P4 B1P4 S_3 W0 W1) _sub44
    I11 (B1P1 B1P2 B1P3 B1P4 SM1) nand4_1x
    I10 (B0P1 B0P2 B0P3 B0P4 SM0) nand4_1x
    C7 (B1P4 0) capacitor c=0 m=1
    C6 (B1P2 0) capacitor c=0 m=1
    C5 (B1P3 0) capacitor c=0 m=1
    C4 (B0P4 0) capacitor c=0 m=1
    C3 (B0P3 0) capacitor c=0 m=1
    C2 (B0P2 0) capacitor c=0 m=1
    C1 (B1P1 0) capacitor c=0 m=1
    C0 (B0P1 0) capacitor c=0 m=1
ends _sub45
// End of subcircuit definition.

// Library name: 16nm
// Cell name: 6T_SetRead
// View name: schematic
// Inherited view list: spectre spice verilog behavioral functional hdl
//system verilogNetlist schematic cmos.sch cmos_sch veriloga ahdl
subckt _sub46 Go SM0_0 SM0_1 SM1_0 SM1_1 \~R0 \~R1
    M5 (\~R0 SM0_0 net18 0) nfet w=60n l=20n nfin=1 m=1 degradation=no
    M3 (\~R0 SM0_1 net18 0) nfet w=60n l=20n nfin=1 m=1 degradation=no
    M2 (net18 Go 0 0) nfet w=120n l=20n nfin=2 m=1 degradation=no
    M1 (\~R1 SM1_1 net18 0) nfet w=60n l=20n nfin=1 m=1 degradation=no
    M0 (\~R1 SM1_0 net18 0) nfet w=60n l=20n nfin=1 m=1 degradation=no
ends _sub46
// End of subcircuit definition.

// Library name: 16nm
// Cell name: 6T_CHUNK
// View name: schematic
// Inherited view list: spectre spice verilog behavioral functional hdl
//system verilogNetlist schematic cmos.sch cmos_sch veriloga ahdl
subckt _sub47 A_63 A_62 A_61 A_60 A_59 A_58 A_57 A_56 A_55 A_54 A_53 \
        A_52 A_51 A_50 A_49 A_48 A_47 A_46 A_45 A_44 A_43 A_42 A_41 \
        A_40 A_39 A_38 A_37 A_36 A_35 A_34 A_33 A_32 A_31 A_30 A_29 \
        A_28 A_27 A_26 A_25 A_24 A_23 A_22 A_21 A_20 A_19 A_18 A_17 \
        A_16 A_15 A_14 A_13 A_12 A_11 A_10 A_9 A_8 A_7 A_6 A_5 A_4 A_3 \
        A_2 A_1 A_0 B0_3 B0_2 B0_1 B0_0 B1_3 B1_2 B1_1 B1_0 Go S_7 S_6 \
        S_5 S_4 S_3 S_2 S_1 S_0 W0_3 W0_2 W0_1 W0_0 W1_3 W1_2 W1_1 W1_0 \
        \~R0_3 \~R0_2 \~R0_1 \~R0_0 \~R1_3 \~R1_2 \~R1_1 \~R1_0
    I11 (A_63 A_62 A_61 A_60 A_59 A_58 A_57 A_56 A_55 A_54 A_53 A_52 \
        A_51 A_50 A_49 A_48 A_47 A_46 A_45 A_44 A_43 A_42 A_41 A_40 \
        A_39 A_38 A_37 A_36 A_35 A_34 A_33 A_32 B0_3 B1_3 S_7 S_6 S_5 \
        S_4 W0_3 W1_3 SM0_1_bit3 SM1_1_bit3) _sub45
    I10 (A_63 A_62 A_61 A_60 A_59 A_58 A_57 A_56 A_55 A_54 A_53 A_52 \
        A_51 A_50 A_49 A_48 A_47 A_46 A_45 A_44 A_43 A_42 A_41 A_40 \
        A_39 A_38 A_37 A_36 A_35 A_34 A_33 A_32 B0_2 B1_2 S_7 S_6 S_5 \
        S_4 W0_2 W1_2 SM0_1_bit2 SM1_1_bit2) _sub45
    I9 (A_63 A_62 A_61 A_60 A_59 A_58 A_57 A_56 A_55 A_54 A_53 A_52 \
        A_51 A_50 A_49 A_48 A_47 A_46 A_45 A_44 A_43 A_42 A_41 A_40 \
        A_39 A_38 A_37 A_36 A_35 A_34 A_33 A_32 B0_1 B1_1 S_7 S_6 S_5 \
        S_4 W0_1 W1_1 SM0_1_bit1 SM1_1_bit1) _sub45
    I8 (A_63 A_62 A_61 A_60 A_59 A_58 A_57 A_56 A_55 A_54 A_53 A_52 \
        A_51 A_50 A_49 A_48 A_47 A_46 A_45 A_44 A_43 A_42 A_41 A_40 \
        A_39 A_38 A_37 A_36 A_35 A_34 A_33 A_32 B0_0 B1_0 S_7 S_6 S_5 \
        S_4 W0_0 W1_0 SM0_1_bit0 SM1_1_bit0) _sub45
    I3 (A_31 A_30 A_29 A_28 A_27 A_26 A_25 A_24 A_23 A_22 A_21 A_20 \
        A_19 A_18 A_17 A_16 A_15 A_14 A_13 A_12 A_11 A_10 A_9 A_8 A_7 \
        A_6 A_5 A_4 A_3 A_2 A_1 A_0 B0_3 B1_3 S_3 S_2 S_1 S_0 W0_3 W1_3 \
        SM0_0_bit3 SM1_0_bit3) _sub45
    I2 (A_31 A_30 A_29 A_28 A_27 A_26 A_25 A_24 A_23 A_22 A_21 A_20 \
        A_19 A_18 A_17 A_16 A_15 A_14 A_13 A_12 A_11 A_10 A_9 A_8 A_7 \
        A_6 A_5 A_4 A_3 A_2 A_1 A_0 B0_2 B1_2 S_3 S_2 S_1 S_0 W0_2 W1_2 \
        SM0_0_bit2 SM1_0_bit2) _sub45
    I1 (A_31 A_30 A_29 A_28 A_27 A_26 A_25 A_24 A_23 A_22 A_21 A_20 \
        A_19 A_18 A_17 A_16 A_15 A_14 A_13 A_12 A_11 A_10 A_9 A_8 A_7 \
        A_6 A_5 A_4 A_3 A_2 A_1 A_0 B0_1 B1_1 S_3 S_2 S_1 S_0 W0_1 W1_1 \
        SM0_0_bit1 SM1_0_bit1) _sub45
    I0 (A_31 A_30 A_29 A_28 A_27 A_26 A_25 A_24 A_23 A_22 A_21 A_20 \
        A_19 A_18 A_17 A_16 A_15 A_14 A_13 A_12 A_11 A_10 A_9 A_8 A_7 \
        A_6 A_5 A_4 A_3 A_2 A_1 A_0 B0_0 B1_0 S_3 S_2 S_1 S_0 W0_0 W1_0 \
        SM0_0_bit0 SM1_0_bit0) _sub45
    I7 (Go SM0_0_bit3 SM0_1_bit3 SM1_0_bit3 SM1_1_bit3 \~R0_3 \~R1_3) \
        _sub46
    I6 (Go SM0_0_bit2 SM0_1_bit2 SM1_0_bit2 SM1_1_bit2 \~R0_2 \~R1_2) \
        _sub46
    I5 (Go SM0_0_bit1 SM0_1_bit1 SM1_0_bit1 SM1_1_bit1 \~R0_1 \~R1_1) \
        _sub46
    I4 (Go SM0_0_bit0 SM0_1_bit0 SM1_0_bit0 SM1_1_bit0 \~R0_0 \~R1_0) \
        _sub46
ends _sub47
// End of subcircuit definition.

// Library name: 16nm
// Cell name: and4_1x
// View name: schematic
// Inherited view list: spectre spice verilog behavioral functional hdl
//system verilogNetlist schematic cmos.sch cmos_sch veriloga ahdl
subckt and4_1x A B C D Y
    I15 (A B C D net1) nand4_1x
    I16 (net1 Y) inv_1x
ends and4_1x
// End of subcircuit definition.

// Library name: 16nm
// Cell name: Demux_2e1of4
// View name: schematic
// Inherited view list: spectre spice verilog behavioral functional hdl
//system verilogNetlist schematic cmos.sch cmos_sch veriloga ahdl
subckt Demux_2e1of4 _1of4_1_3 _1of4_1_2 _1of4_1_1 _1of4_1_0 _1of4_2_3 \
        _1of4_2_2 _1of4_2_1 _1of4_2_0 A_15 A_14 A_13 A_12 A_11 A_10 A_9 \
        A_8 A_7 A_6 A_5 A_4 A_3 A_2 A_1 A_0 En EnOut
    I15 (_1of4_1_3 _1of4_2_3 EnOut En A_15) and4_1x
    I14 (_1of4_1_2 _1of4_2_3 EnOut En A_14) and4_1x
    I13 (_1of4_1_1 _1of4_2_3 EnOut En A_13) and4_1x
    I12 (_1of4_1_0 _1of4_2_3 EnOut En A_12) and4_1x
    I11 (_1of4_1_3 _1of4_2_2 EnOut En A_11) and4_1x
    I10 (_1of4_1_2 _1of4_2_2 EnOut En A_10) and4_1x
    I9 (_1of4_1_1 _1of4_2_2 EnOut En A_9) and4_1x
    I8 (_1of4_1_0 _1of4_2_2 EnOut En A_8) and4_1x
    I7 (_1of4_1_3 _1of4_2_1 EnOut En A_7) and4_1x
    I6 (_1of4_1_2 _1of4_2_1 EnOut En A_6) and4_1x
    I5 (_1of4_1_1 _1of4_2_1 EnOut En A_5) and4_1x
    I4 (_1of4_1_0 _1of4_2_1 EnOut En A_4) and4_1x
    I3 (_1of4_1_3 _1of4_2_0 EnOut En A_3) and4_1x
    I2 (_1of4_1_2 _1of4_2_0 EnOut En A_2) and4_1x
    I1 (_1of4_1_1 _1of4_2_0 EnOut En A_1) and4_1x
    I0 (_1of4_1_0 _1of4_2_0 EnOut En A_0) and4_1x
ends Demux_2e1of4
// End of subcircuit definition.

// Library name: 16nm
// Cell name: nor4_1x
// View name: schematic
// Inherited view list: spectre spice verilog behavioral functional hdl
//system verilogNetlist schematic cmos.sch cmos_sch veriloga ahdl
subckt nor4_1x A B C D Y
    M5 (net017 C net21 vdd!) pfet w=400n l=20n nfin=1 m=1 \
        degradation=yes
    M4 (Y D net017 vdd!) pfet w=400n l=20n nfin=1 m=1 degradation=yes
    M3 (net21 B net018 vdd!) pfet w=400n l=20n nfin=1 m=1 \
        degradation=yes
    M2 (net018 A vdd! vdd!) pfet w=400n l=20n nfin=1 m=1 \
        degradation=yes
    M7 (Y D 0 0) nfet w=60n l=20n nfin=1 m=1 degradation=no
    M6 (Y C 0 0) nfet w=60n l=20n nfin=1 m=1 degradation=no
    M1 (Y A 0 0) nfet w=60n l=20n nfin=1 m=1 degradation=no
    M0 (Y B 0 0) nfet w=60n l=20n nfin=1 m=1 degradation=no
ends nor4_1x
// End of subcircuit definition.

// Library name: 16nm
// Cell name: or16_1x
// View name: schematic