// Generated for: spectre
// Generated on: Apr 24 18:44:17 2015
// Design library name: 16nm_Tests
// Design cell name: 6T_DataPath_Test
// Design view name: config
simulator lang=spectre
global 0 vcc! vdd!
parameters vdd=.700
include "/software/cadence/ncsu-FreePDK15/hspice_16nm_hp.include"
// BEGIN Flat Interface Elements
// Flattened IE at /net060<9> uses port path 99999
// Flattened IE at /net049<13> uses port path 99998
// Flattened IE at /net060<7> uses port path 99997
// Flattened IE at /net027<6> uses port path 99996
// Flattened IE at /net060<1> uses port path 99995
// Flattened IE at /net049<4> uses port path 99994
// Flattened IE at /net049<6> uses port path 99993
// Flattened IE at /net049<12> uses port path 99992
// Flattened IE at /net049<15> uses port path 99991
// Flattened IE at /net060<0> uses port path 99990
// Flattened IE at /net064<1> uses port path 99989
// Flattened IE at /net41<1> uses port path 99988
// Flattened IE at /net049<19> uses port path 99987
// Flattened IE at /net060<5> uses port path 99986
// Flattened IE at /net060<6> uses port path 99985
// Flattened IE at /net049<17> uses port path 99984
// Flattened IE at /net049<3> uses port path 99983
// Flattened IE at /net027<2> uses port path 99982
// Flattened IE at /net060<12> uses port path 99981
// Flattened IE at /net036<0> uses port path 99980
// Flattened IE at /net049<7> uses port path 99979
// Flattened IE at /net060<2> uses port path 99978
// Flattened IE at /net027<1> uses port path 99977
// Flattened IE at /net027<3> uses port path 99976
// Flattened IE at /net036<1> uses port path 99975
// Flattened IE at /net045<3> uses port path 99974
// Flattened IE at /net045<0> uses port path 99973
// Flattened IE at /~ReadAck uses port path 99972
// Flattened IE at /net045<1> uses port path 99971
// Flattened IE at /net44<1> uses port path 99970
// Flattened IE at /net045<2> uses port path 99969
// Flattened IE at /~RRW<0> uses port path 99968
// Flattened IE at /~WriteAck uses port path 99967
// Flattened IE at /net045<4> uses port path 99966
// Flattened IE at /net049<18> uses port path 99965
// Flattened IE at /net049<16> uses port path 99964
// Flattened IE at /net44<2> uses port path 99963
// Flattened IE at /net060<16> uses port path 99962
// Flattened IE at /net44<7> uses port path 99961
// Flattened IE at /net049<11> uses port path 99960
// Flattened IE at /net027<0> uses port path 99959
// Flattened IE at /net060<8> uses port path 99958
// Flattened IE at /net049<1> uses port path 99957
// Flattened IE at /net027<5> uses port path 99956
// Flattened IE at /net049<0> uses port path 99955
// Flattened IE at /net060<19> uses port path 99954
// Flattened IE at /~RRW<1> uses port path 99953
// Flattened IE at /net064<0> uses port path 99952
// Flattened IE at /net049<14> uses port path 99951
// Flattened IE at /net048<2> uses port path 99950
// Flattened IE at /net049<8> uses port path 99949
// Flattened IE at /net41<0> uses port path 99948
// Flattened IE at /net048<3> uses port path 99947
// Flattened IE at /net048<4> uses port path 99946
// Flattened IE at /net027<7> uses port path 99945
// Flattened IE at /net049<5> uses port path 99944
// Flattened IE at /net060<15> uses port path 99943
// Flattened IE at /net060<13> uses port path 99942
// Flattened IE at /net060<11> uses port path 99941
// Flattened IE at /net048<1> uses port path 99940
// Flattened IE at /net060<14> uses port path 99939
// Flattened IE at /net44<3> uses port path 99938
// Flattened IE at /net44<6> uses port path 99937
// Flattened IE at /net44<4> uses port path 99936
// Flattened IE at /net060<17> uses port path 99935
// Flattened IE at /net049<9> uses port path 99934
// Flattened IE at /net060<18> uses port path 99933
// Flattened IE at /net44<5> uses port path 99932
// Flattened IE at /net049<10> uses port path 99931
// Flattened IE at /net060<10> uses port path 99930
// Flattened IE at /net048<0> uses port path 99929
// Flattened IE at /net44<0> uses port path 99928
// Flattened IE at /net027<4> uses port path 99927
// Flattened IE at /net060<3> uses port path 99926
// Flattened IE at /net049<2> uses port path 99925
// Flattened IE at /net060<4> uses port path 99924
// END Flat Interface Elements

// Library name: 16nm
// Cell name: nor4_1x
// View name: schematic
// Inherited view list: spectre spice verilog behavioral functional hdl
//system verilogNetlist schematic cmos.sch cmos_sch veriloga ahdl
subckt nor4_1x A B C D Y
    M5 (net017 C net21 vdd!) pfet w=400n l=20n nfin=1 m=1 degradation=no
    M4 (Y D net017 vdd!) pfet w=400n l=20n nfin=1 m=1 degradation=no
    M3 (net21 B net018 vdd!) pfet w=400n l=20n nfin=1 m=1 degradation=no
    M2 (net018 A vdd! vdd!) pfet w=400n l=20n nfin=1 m=1 degradation=no
    M7 (Y D 0 0) nfet w=60n l=20n nfin=1 m=1 degradation=no
    M6 (Y C 0 0) nfet w=60n l=20n nfin=1 m=1 degradation=no
    M1 (Y A 0 0) nfet w=60n l=20n nfin=1 m=1 degradation=no
    M0 (Y B 0 0) nfet w=60n l=20n nfin=1 m=1 degradation=no
ends nor4_1x
// End of subcircuit definition.

// Library name: 16nm
// Cell name: inv_1x
// View name: schematic
// Inherited view list: spectre spice verilog behavioral functional hdl
//system verilogNetlist schematic cmos.sch cmos_sch veriloga ahdl
subckt inv_1x A Y
    M0 (Y A 0 0) nfet w=60n l=20n nfin=1 m=1 degradation=no
    M1 (Y A vdd! vdd!) pfet w=100n l=20n nfin=1 m=1 degradation=no
ends inv_1x
// End of subcircuit definition.

// Library name: 16nm
// Cell name: or4_1x
// View name: schematic
// Inherited view list: spectre spice verilog behavioral functional hdl
//system verilogNetlist schematic cmos.sch cmos_sch veriloga ahdl
subckt or4_1x A B C D Y
    I0 (A B C D net11) nor4_1x
    I1 (net11 Y) inv_1x
ends or4_1x
// End of subcircuit definition.

// Library name: 16nm
// Cell name: TH22
// View name: schematic
// Inherited view list: spectre spice verilog behavioral functional hdl
//system verilogNetlist schematic cmos.sch cmos_sch veriloga ahdl
subckt TH22 A B Y
    M5 (Y net5 0 0) nfet w=60n l=20n nfin=1 m=1 degradation=no
    M4 (net5 Y net9 0) nfet w=120n l=20n nfin=1 m=1 degradation=no
    M3 (net9 B 0 0) nfet w=120n l=20n nfin=1 m=1 degradation=no
    M2 (net9 A 0 0) nfet w=120n l=20n nfin=1 m=1 degradation=no
    M1 (net5 B net17 0) nfet w=120n l=20n nfin=1 m=1 degradation=no
    M0 (net17 A 0 0) nfet w=120n l=20n nfin=1 m=1 degradation=no
    M11 (Y net5 vdd! vdd!) pfet w=100n l=20n nfin=1 m=1 degradation=no
    M10 (net5 B net032 vdd!) pfet w=200n l=20n nfin=1 m=1 degradation=no
    M9 (net032 A vdd! vdd!) pfet w=200n l=20n nfin=1 m=1 degradation=no
    M8 (net037 B vdd! vdd!) pfet w=200n l=20n nfin=1 m=1 degradation=no
    M7 (net037 A vdd! vdd!) pfet w=200n l=20n nfin=1 m=1 degradation=no
    M6 (net5 Y net037 vdd!) pfet w=200n l=20n nfin=1 m=1 degradation=no
ends TH22
// End of subcircuit definition.

// Library name: 16nm
// Cell name: TH33
// View name: schematic
// Inherited view list: spectre spice verilog behavioral functional hdl
//system verilogNetlist schematic cmos.sch cmos_sch veriloga ahdl
subckt TH33 A B C Y
    M19 (net13 A 0 0) nfet w=120n l=20n nfin=1 m=1 degradation=no
    M18 (net13 B 0 0) nfet w=120n l=20n nfin=1 m=1 degradation=no
    M17 (net13 C 0 0) nfet w=120n l=20n nfin=1 m=1 degradation=no
    M15 (Y net44 0 0) nfet w=60n l=20n nfin=1 m=1 degradation=no
    M14 (net42 A 0 0) nfet w=180n l=20n nfin=1 m=1 degradation=no
    M13 (net43 B net42 0) nfet w=180n l=20n nfin=1 m=1 degradation=no
    M12 (net44 C net43 0) nfet w=180n l=20n nfin=1 m=1 degradation=no
    M10 (net44 Y net13 0) nfet w=120n l=20n nfin=1 m=1 degradation=no
    M9 (Y net44 vdd! vdd!) pfet w=100n l=20n nfin=1 m=1 region=off \
        degradation=no
    M8 (net44 Y net15 vdd!) pfet w=200n l=20n nfin=1 m=1 degradation=no
    M6 (net15 C vdd! vdd!) pfet w=200n l=20n nfin=1 m=1 degradation=no
    M5 (net15 B vdd! vdd!) pfet w=200n l=20n nfin=1 m=1 degradation=no
    M4 (net15 A vdd! vdd!) pfet w=200n l=20n nfin=1 m=1 degradation=no
    M2 (net44 C net46 vdd!) pfet w=300n l=20n nfin=1 m=1 degradation=no
    M1 (net46 B net47 vdd!) pfet w=300n l=20n nfin=1 m=1 degradation=no
    M0 (net47 A vdd! vdd!) pfet w=300n l=20n nfin=1 m=1 degradation=no
ends TH33
// End of subcircuit definition.

// Library name: 16nm
// Cell name: nor_1x
// View name: schematic
// Inherited view list: spectre spice verilog behavioral functional hdl
//system verilogNetlist schematic cmos.sch cmos_sch veriloga ahdl
subckt nor_1x A B Y
    M3 (Y B or_pd_ps vdd!) pfet w=200n l=20n nfin=1 m=1 degradation=no
    M2 (or_pd_ps A vdd! vdd!) pfet w=200n l=20n nfin=1 m=1 degradation=no
    M1 (Y B 0 0) nfet w=60n l=20n nfin=1 m=1 degradation=no
    M0 (Y A 0 0) nfet w=60n l=20n nfin=1 m=1 degradation=no
ends nor_1x
// End of subcircuit definition.

// Library name: 16nm
// Cell name: or_1x
// View name: schematic
// Inherited view list: spectre spice verilog behavioral functional hdl
//system verilogNetlist schematic cmos.sch cmos_sch veriloga ahdl
subckt or_1x A B Y
    I6 (A B AnorB) nor_1x
    I7 (AnorB Y) inv_1x
ends or_1x
// End of subcircuit definition.

// Library name: 16nm
// Cell name: 6T_1of4Merge
// View name: schematic
// Inherited view list: spectre spice verilog behavioral functional hdl
//system verilogNetlist schematic cmos.sch cmos_sch veriloga ahdl
subckt _sub0 a_3 a_2 a_1 a_0 a_ack ack asel b_3 b_2 b_1 b_0 b_ack bsel \
        out_3 out_2 out_1 out_0
    I13 (bmid_0 bmid_1 bmid_2 bmid_3 b_ack) or4_1x
    I12 (amid_0 amid_1 amid_2 amid_3 a_ack) or4_1x
    I11 (Vpass_0 ack out_0) TH22
    I10 (Vpass_1 ack out_1) TH22
    I9 (Vpass_2 ack out_2) TH22
    I8 (Vpass_3 ack out_3) TH22
    I21 (out_0 \~out_0) inv_1x
    I20 (out_1 \~out_1) inv_1x
    I19 (out_2 \~out_2) inv_1x
    I18 (out_3 \~out_3) inv_1x
    I7 (b_0 bsel \~out_0 bmid_0) TH33
    I6 (b_1 bsel \~out_1 bmid_1) TH33
    I5 (b_2 bsel \~out_2 bmid_2) TH33
    I4 (b_3 bsel \~out_3 bmid_3) TH33
    I3 (a_3 asel \~out_3 amid_3) TH33
    I2 (a_2 asel \~out_2 amid_2) TH33
    I1 (a_1 asel \~out_1 amid_1) TH33
    I0 (a_0 asel \~out_0 amid_0) TH33
    I17 (amid_3 bmid_3 Vpass_3) or_1x
    I16 (amid_2 bmid_2 Vpass_2) or_1x
    I15 (amid_1 bmid_1 Vpass_1) or_1x
    I14 (amid_0 bmid_0 Vpass_0) or_1x
ends _sub0
// End of subcircuit definition.

// Library name: 16nm
// Cell name: 6T_4of16Merge
// View name: schematic
// Inherited view list: spectre spice verilog behavioral functional hdl
//system verilogNetlist schematic cmos.sch cmos_sch veriloga ahdl
subckt _sub1 A1_1of4_3 A1_1of4_2 A1_1of4_1 A1_1of4_0 A2_1of4_3 A2_1of4_2 \
        A2_1of4_1 A2_1of4_0 A3_1of4_3 A3_1of4_2 A3_1of4_1 A3_1of4_0 \
        A4_1of4_3 A4_1of4_2 A4_1of4_1 A4_1of4_0 A_Ack_3 A_Ack_2 A_Ack_1 \
        A_Ack_0 Asel B1_1of4_3 B1_1of4_2 B1_1of4_1 B1_1of4_0 B2_1of4_3 \
        B2_1of4_2 B2_1of4_1 B2_1of4_0 B3_1of4_3 B3_1of4_2 B3_1of4_1 \
        B3_1of4_0 B4_1of4_3 B4_1of4_2 B4_1of4_1 B4_1of4_0 B_Ack_3 B_Ack_2 \
        B_Ack_1 B_Ack_0 Bsel C1_1of4_3 C1_1of4_2 C1_1of4_1 C1_1of4_0 \
        C2_1of4_3 C2_1of4_2 C2_1of4_1 C2_1of4_0 C3_1of4_3 C3_1of4_2 \
        C3_1of4_1 C3_1of4_0 C4_1of4_3 C4_1of4_2 C4_1of4_1 C4_1of4_0 \
        C_Ack_3 C_Ack_2 C_Ack_1 C_Ack_0
    I25 (A4_1of4_3 A4_1of4_2 A4_1of4_1 A4_1of4_0 A_Ack_3 C_Ack_3 Asel \
        B4_1of4_3 B4_1of4_2 B4_1of4_1 B4_1of4_0 B_Ack_3 Bsel C4_1of4_3 \
        C4_1of4_2 C4_1of4_1 C4_1of4_0) _sub0
    I24 (A3_1of4_3 A3_1of4_2 A3_1of4_1 A3_1of4_0 A_Ack_2 C_Ack_2 Asel \
        B3_1of4_3 B3_1of4_2 B3_1of4_1 B3_1of4_0 B_Ack_2 Bsel C3_1of4_3 \
        C3_1of4_2 C3_1of4_1 C3_1of4_0) _sub0
    I23 (A2_1of4_3 A2_1of4_2 A2_1of4_1 A2_1of4_0 A_Ack_1 C_Ack_1 Asel \
        B2_1of4_3 B2_1of4_2 B2_1of4_1 B2_1of4_0 B_Ack_1 Bsel C2_1of4_3 \
        C2_1of4_2 C2_1of4_1 C2_1of4_0) _sub0
    I22 (A1_1of4_3 A1_1of4_2 A1_1of4_1 A1_1of4_0 A_Ack_0 C_Ack_0 Asel \
        B1_1of4_3 B1_1of4_2 B1_1of4_1 B1_1of4_0 B_Ack_0 Bsel C1_1of4_3 \
        C1_1of4_2 C1_1of4_1 C1_1of4_0) _sub0
ends _sub1
// End of subcircuit definition.

// Library name: 16nm
// Cell name: 6T_1of2Merge
// View name: schematic
// Inherited view list: spectre spice verilog behavioral functional hdl
//system verilogNetlist schematic cmos.sch cmos_sch veriloga ahdl
subckt _sub2 a_1 a_0 a_ack ack asel b_1 b_0 b_ack bsel out_1 out_0
    I11 (outp_0 ack out_0) TH22
    I10 (outp_1 ack out_1) TH22
    I15 (ap_1 bp_1 outp_1) or_1x
    I14 (ap_0 bp_0 outp_0) or_1x
    I13 (bp_0 bp_1 b_ack) or_1x
    I12 (ap_0 ap_1 a_ack) or_1x
    I21 (out_0 \~out_0) inv_1x
    I20 (out_1 \~out_1) inv_1x
    I7 (b_0 bsel \~out_0 bp_0) TH33
    I6 (b_1 bsel \~out_1 bp_1) TH33
    I1 (a_1 asel \~out_1 ap_1) TH33
    I0 (a_0 asel \~out_0 ap_0) TH33
ends _sub2
// End of subcircuit definition.

// Library name: 16nm
// Cell name: 6T_AddressMerge
// View name: schematic
// Inherited view list: spectre spice verilog behavioral functional hdl
//system verilogNetlist schematic cmos.sch cmos_sch veriloga ahdl
subckt _sub3 W_Addr_19 W_Addr_18 W_Addr_17 W_Addr_16 W_Addr_15 W_Addr_14 \
        W_Addr_13 W_Addr_12 W_Addr_11 W_Addr_10 W_Addr_9 W_Addr_8 W_Addr_7 \
        W_Addr_6 W_Addr_5 W_Addr_4 W_Addr_3 W_Addr_2 W_Addr_1 W_Addr_0 \
        Write_Ack R_Addr_19 R_Addr_18 R_Addr_17 R_Addr_16 R_Addr_15 \
        R_Addr_14 R_Addr_13 R_Addr_12 R_Addr_11 R_Addr_10 R_Addr_9 \
        R_Addr_8 R_Addr_7 R_Addr_6 R_Addr_5 R_Addr_4 R_Addr_3 R_Addr_2 \
        R_Addr_1 R_Addr_0 RAddr_Ack_4 RAddr_Ack_3 RAddr_Ack_2 RAddr_Ack_1 \
        RAddr_Ack_0 Read_1 Read_0 RW_Ack Write_1 Write_0 Read_Ack Ack_4 \
        Ack_3 Ack_2 Ack_1 Ack_0 Addr_19 Addr_18 Addr_17 Addr_16 Addr_15 \
        Addr_14 Addr_13 Addr_12 Addr_11 Addr_10 Addr_9 Addr_8 Addr_7 \
        Addr_6 Addr_5 Addr_4 Addr_3 Addr_2 Addr_1 Addr_0 RW_1 RW_0 \
        WAddr_Ack_4 WAddr_Ack_3 WAddr_Ack_2 WAddr_Ack_1 WAddr_Ack_0
    I0 (W_Addr_3 W_Addr_2 W_Addr_1 W_Addr_0 W_Addr_7 W_Addr_6 W_Addr_5 \
        W_Addr_4 W_Addr_11 W_Addr_10 W_Addr_9 W_Addr_8 W_Addr_15 W_Addr_14 \
        W_Addr_13 W_Addr_12 WAddr_Ack_3 WAddr_Ack_2 WAddr_Ack_1 \
        WAddr_Ack_0 Write_0 R_Addr_3 R_Addr_2 R_Addr_1 R_Addr_0 R_Addr_7 \
        R_Addr_6 R_Addr_5 R_Addr_4 R_Addr_11 R_Addr_10 R_Addr_9 R_Addr_8 \
        R_Addr_15 R_Addr_14 R_Addr_13 R_Addr_12 RAddr_Ack_3 RAddr_Ack_2 \
        RAddr_Ack_1 RAddr_Ack_0 Read_1 Addr_3 Addr_2 Addr_1 Addr_0 Addr_7 \
        Addr_6 Addr_5 Addr_4 Addr_11 Addr_10 Addr_9 Addr_8 Addr_15 Addr_14 \
        Addr_13 Addr_12 Ack_3 Ack_2 Ack_1 Ack_0) _sub1
    I1 (W_Addr_19 W_Addr_18 W_Addr_17 W_Addr_16 WAddr_Ack_4 Ack_4 Write_0 \
        R_Addr_19 R_Addr_18 R_Addr_17 R_Addr_16 RAddr_Ack_4 Read_1 Addr_19 \
        Addr_18 Addr_17 Addr_16) _sub0
    I3 (Write_1 Write_0 Write_Ack RW_Ack Write_0 Read_1 Read_0 Read_Ack \
        Read_1 RW_1 RW_0) _sub2
ends _sub3
// End of subcircuit definition.

// Library name: 16nm
// Cell name: 6T
// View name: schematic
// Inherited view list: spectre spice verilog behavioral functional hdl
//system verilogNetlist schematic cmos.sch cmos_sch veriloga ahdl
subckt _sub4 A B0 B1
    M5 (Q0 Q1 0 0) nfet w=60n l=20n nfin=1 m=1 degradation=no
    M4 (Q1 Q0 0 0) nfet w=60n l=20n nfin=1 m=1 degradation=no
    M1 (Q1 A B1 0) nfet w=120n l=20n nfin=2 m=1 degradation=no
    M0 (Q0 A B0 0) nfet w=120n l=20n nfin=2 m=1 degradation=no
    M3 (Q0 Q1 vdd! vdd!) pfet w=100n l=20n nfin=1 m=1 degradation=no
    M2 (Q1 Q0 vdd! vdd!) pfet w=100n l=20n nfin=1 m=1 degradation=no
ends _sub4
// End of subcircuit definition.

// Library name: 16nm
// Cell name: 6T_4x
// View name: schematic
// Inherited view list: spectre spice verilog behavioral functional hdl
//system verilogNetlist schematic cmos.sch cmos_sch veriloga ahdl
subckt _sub5 A_3 A_2 A_1 A_0 B0 B1
    I3 (A_0 B0 B1) _sub4
    I2 (A_1 B0 B1) _sub4
    I1 (A_2 B0 B1) _sub4
    I0 (A_3 B0 B1) _sub4
ends _sub5
// End of subcircuit definition.

// Library name: 16nm
// Cell name: 6T_32x
// View name: schematic
// Inherited view list: spectre spice verilog behavioral functional hdl
//system verilogNetlist schematic cmos.sch cmos_sch veriloga ahdl
subckt _sub6 B0 B1 A_31 A_30 A_29 A_28 A_27 A_26 A_25 A_24 A_23 A_22 A_21 \
        A_20 A_19 A_18 A_17 A_16 A_15 A_14 A_13 A_12 A_11 A_10 A_9 A_8 A_7 \
        A_6 A_5 A_4 A_3 A_2 A_1 A_0
    I7 (A_3 A_2 A_1 A_0 B0 B1) _sub5
    I6 (A_7 A_6 A_5 A_4 B0 B1) _sub5
    I5 (A_11 A_10 A_9 A_8 B0 B1) _sub5
    I4 (A_15 A_14 A_13 A_12 B0 B1) _sub5
    I3 (A_19 A_18 A_17 A_16 B0 B1) _sub5
    I2 (A_23 A_22 A_21 A_20 B0 B1) _sub5
    I1 (A_27 A_26 A_25 A_24 B0 B1) _sub5
    I0 (A_31 A_30 A_29 A_28 B0 B1) _sub5
ends _sub6
// End of subcircuit definition.

// Library name: 16nm
// Cell name: 6T_32x_CTRL
// View name: schematic
// Inherited view list: spectre spice verilog behavioral functional hdl
//system verilogNetlist schematic cmos.sch cmos_sch veriloga ahdl
subckt _sub7 B0 B1 S W0 W1
    M10 (B1 B0 net22 vdd!) pfet w=100n l=20n nfin=1 m=1 degradation=no
    M9 (net22 W1 vdd! vdd!) pfet w=100n l=20n nfin=1 m=1 degradation=no
    M8 (B0 B1 net23 vdd!) pfet w=100n l=20n nfin=1 m=1 degradation=no
    M7 (net23 W0 vdd! vdd!) pfet w=100n l=20n nfin=1 m=1 degradation=no
    M2 (B1 S vdd! vdd!) pfet w=100n l=20n nfin=1 m=1 degradation=no
    M0 (B0 S vdd! vdd!) pfet w=100n l=20n nfin=1 m=1 degradation=no
    M6 (B1 W1 net24 0) nfet w=60n l=20n nfin=1 m=1 degradation=no
    M5 (net24 S 0 0) nfet w=60n l=20n nfin=1 m=1 degradation=no
    M4 (net25 S 0 0) nfet w=60n l=20n nfin=1 m=1 degradation=no
    M3 (B0 W0 net25 0) nfet w=60n l=20n nfin=1 m=1 degradation=no
ends _sub7
// End of subcircuit definition.

// Library name: 16nm
// Cell name: nand4_1x
// View name: schematic
// Inherited view list: spectre spice verilog behavioral functional hdl
//system verilogNetlist schematic cmos.sch cmos_sch veriloga ahdl
subckt nand4_1x A B C D Y
    M5 (Y D vdd! vdd!) pfet w=100n l=20n nfin=1 m=1 degradation=no
    M4 (Y C vdd! vdd!) pfet w=100n l=20n nfin=1 m=1 degradation=no
    M1 (Y B vdd! vdd!) pfet w=100n l=20n nfin=1 m=1 degradation=no
    M0 (Y A vdd! vdd!) pfet w=100n l=20n nfin=1 m=1 degradation=no
    M7 (net23 D 0 0) nfet w=240n l=20n nfin=1 m=1 degradation=no
    M6 (net25 C net23 0) nfet w=240n l=20n nfin=1 m=1 degradation=no
    M3 (net24 B net25 0) nfet w=240n l=20n nfin=1 m=1 degradation=no
    M2 (Y A net24 0) nfet w=240n l=20n nfin=1 m=1 degradation=no
ends nand4_1x
// End of subcircuit definition.

// Library name: 16nm
// Cell name: 6T_32x4
// View name: schematic
// Inherited view list: spectre spice verilog behavioral functional hdl
//system verilogNetlist schematic cmos.sch cmos_sch veriloga ahdl
subckt _sub8 A_31 A_30 A_29 A_28 A_27 A_26 A_25 A_24 A_23 A_22 A_21 A_20 \
        A_19 A_18 A_17 A_16 A_15 A_14 A_13 A_12 A_11 A_10 A_9 A_8 A_7 A_6 \
        A_5 A_4 A_3 A_2 A_1 A_0 B0 B1 S_3 S_2 S_1 S_0 W0 W1 SM1 SM0
    I3 (B0P4 B1P4 A_31 A_30 A_29 A_28 A_27 A_26 A_25 A_24 A_23 A_22 A_21 \
        A_20 A_19 A_18 A_17 A_16 A_15 A_14 A_13 A_12 A_11 A_10 A_9 A_8 A_7 \
        A_6 A_5 A_4 A_3 A_2 A_1 A_0) _sub6
    I1 (B0P2 B1P2 A_31 A_30 A_29 A_28 A_27 A_26 A_25 A_24 A_23 A_22 A_21 \
        A_20 A_19 A_18 A_17 A_16 A_15 A_14 A_13 A_12 A_11 A_10 A_9 A_8 A_7 \
        A_6 A_5 A_4 A_3 A_2 A_1 A_0) _sub6
    I2 (B0P3 B1P3 A_31 A_30 A_29 A_28 A_27 A_26 A_25 A_24 A_23 A_22 A_21 \
        A_20 A_19 A_18 A_17 A_16 A_15 A_14 A_13 A_12 A_11 A_10 A_9 A_8 A_7 \
        A_6 A_5 A_4 A_3 A_2 A_1 A_0) _sub6
    I0 (B0P1 B1P1 A_31 A_30 A_29 A_28 A_27 A_26 A_25 A_24 A_23 A_22 A_21 \
        A_20 A_19 A_18 A_17 A_16 A_15 A_14 A_13 A_12 A_11 A_10 A_9 A_8 A_7 \
        A_6 A_5 A_4 A_3 A_2 A_1 A_0) _sub6
    M0 (B0P1 B0 net67 0) nfet w=60n l=20n nfin=1 m=1 degradation=no
    M1 (net67 S_0 0 0) nfet w=60n l=20n nfin=1 m=1 degradation=no
    M2 (net66 S_0 0 0) nfet w=60n l=20n nfin=1 m=1 degradation=no
    M8 (B1P2 B1 net65 0) nfet w=60n l=20n nfin=1 m=1 degradation=no
    M9 (net65 S_1 0 0) nfet w=60n l=20n nfin=1 m=1 degradation=no
    M10 (net64 S_1 0 0) nfet w=60n l=20n nfin=1 m=1 degradation=no
    M11 (B0P2 B0 net64 0) nfet w=60n l=20n nfin=1 m=1 degradation=no
    M12 (B0P3 B0 net63 0) nfet w=60n l=20n nfin=1 m=1 degradation=no
    M13 (net63 S_2 0 0) nfet w=60n l=20n nfin=1 m=1 degradation=no
    M14 (net62 S_2 0 0) nfet w=60n l=20n nfin=1 m=1 degradation=no
    M15 (B1P3 B1 net62 0) nfet w=60n l=20n nfin=1 m=1 degradation=no
    M16 (B1P4 B1 net61 0) nfet w=60n l=20n nfin=1 m=1 degradation=no
    M17 (net61 S_3 0 0) nfet w=60n l=20n nfin=1 m=1 degradation=no
    M18 (net60 S_3 0 0) nfet w=60n l=20n nfin=1 m=1 degradation=no
    M19 (B0P4 B0 net60 0) nfet w=60n l=20n nfin=1 m=1 degradation=no
    M3 (B1P1 B1 net66 0) nfet w=60n l=20n nfin=1 m=1 degradation=no
    I4 (B0P1 B1P1 S_0 W0 W1) _sub7
    I5 (B0P2 B1P2 S_1 W0 W1) _sub7
    I6 (B0P3 B1P3 S_2 W0 W1) _sub7
    I7 (B0P4 B1P4 S_3 W0 W1) _sub7
    I11 (B1P1 B1P2 B1P3 B1P4 SM1) nand4_1x
    I10 (B0P1 B0P2 B0P3 B0P4 SM0) nand4_1x
    C7 (B1P4 0) capacitor c=1.2822f m=1
    C6 (B1P2 0) capacitor c=1.2822f m=1
    C5 (B1P3 0) capacitor c=1.2822f m=1
    C4 (B0P4 0) capacitor c=1.2822f m=1
    C3 (B0P3 0) capacitor c=1.2822f m=1
    C2 (B0P2 0) capacitor c=1.2822f m=1
    C1 (B1P1 0) capacitor c=1.2822f m=1
    C0 (B0P1 0) capacitor c=1.2822f m=1
    M5 (B1P1 S_0 vdd! vdd!) pfet w=100n l=20n nfin=1 m=1 degradation=no
    M4 (B0P1 S_0 vdd! vdd!) pfet w=100n l=20n nfin=1 m=1 degradation=no
    M6 (B1P2 S_1 vdd! vdd!) pfet w=100n l=20n nfin=1 m=1 degradation=no
    M7 (B0P2 S_1 vdd! vdd!) pfet w=100n l=20n nfin=1 m=1 degradation=no
    M21 (B1P3 S_2 vdd! vdd!) pfet w=100n l=20n nfin=1 m=1 degradation=no
    M20 (B0P3 S_2 vdd! vdd!) pfet w=100n l=20n nfin=1 m=1 degradation=no
    M23 (B0P4 S_3 vdd! vdd!) pfet w=100n l=20n nfin=1 m=1 degradation=no
    M22 (B1P4 S_3 vdd! vdd!) pfet w=100n l=20n nfin=1 m=1 degradation=no
ends _sub8
// End of subcircuit definition.

// Library name: 16nm
// Cell name: 6T_SetRead
// View name: schematic
// Inherited view list: spectre spice verilog behavioral functional hdl
//system verilogNetlist schematic cmos.sch cmos_sch veriloga ahdl
subckt _sub9 \~R0 \~R1 Go SM0_0 SM0_1 SM1_0 SM1_1
    M5 (\~R0 SM0_0 net18 0) nfet w=60n l=20n nfin=1 m=1 degradation=no
    M3 (\~R0 SM0_1 net18 0) nfet w=60n l=20n nfin=1 m=1 degradation=no
    M2 (net18 Go 0 0) nfet w=120n l=20n nfin=2 m=1 degradation=no
    M1 (\~R1 SM1_1 net18 0) nfet w=60n l=20n nfin=1 m=1 degradation=no
    M0 (\~R1 SM1_0 net18 0) nfet w=60n l=20n nfin=1 m=1 degradation=no
ends _sub9
// End of subcircuit definition.

// Library name: 16nm
// Cell name: 6T_CHUNK
// View name: schematic
// Inherited view list: spectre spice verilog behavioral functional hdl
//system verilogNetlist schematic cmos.sch cmos_sch veriloga ahdl
subckt _sub10 \~R0_3 \~R0_2 \~R0_1 \~R0_0 \~R1_3 \~R1_2 \~R1_1 \~R1_0 A_63 \
        A_62 A_61 A_60 A_59 A_58 A_57 A_56 A_55 A_54 A_53 A_52 A_51 A_50 \
        A_49 A_48 A_47 A_46 A_45 A_44 A_43 A_42 A_41 A_40 A_39 A_38 A_37 \
        A_36 A_35 A_34 A_33 A_32 A_31 A_30 A_29 A_28 A_27 A_26 A_25 A_24 \
        A_23 A_22 A_21 A_20 A_19 A_18 A_17 A_16 A_15 A_14 A_13 A_12 A_11 \
        A_10 A_9 A_8 A_7 A_6 A_5 A_4 A_3 A_2 A_1 A_0 B0_3 B0_2 B0_1 B0_0 \
        B1_3 B1_2 B1_1 B1_0 S_7 S_6 S_5 S_4 S_3 S_2 S_1 S_0 W0_3 W0_2 W0_1 \
        W0_0 W1_3 W1_2 W1_1 W1_0 Go
    I11 (A_63 A_62 A_61 A_60 A_59 A_58 A_57 A_56 A_55 A_54 A_53 A_52 A_51 \
        A_50 A_49 A_48 A_47 A_46 A_45 A_44 A_43 A_42 A_41 A_40 A_39 A_38 \
        A_37 A_36 A_35 A_34 A_33 A_32 B0_3 B1_3 S_7 S_6 S_5 S_4 W0_3 W1_3 \
        SM1_1_bit3 SM0_1_bit3) _sub8
    I10 (A_63 A_62 A_61 A_60 A_59 A_58 A_57 A_56 A_55 A_54 A_53 A_52 A_51 \
        A_50 A_49 A_48 A_47 A_46 A_45 A_44 A_43 A_42 A_41 A_40 A_39 A_38 \
        A_37 A_36 A_35 A_34 A_33 A_32 B0_2 B1_2 S_7 S_6 S_5 S_4 W0_2 W1_2 \
        SM1_1_bit2 SM0_1_bit2) _sub8
    I9 (A_63 A_62 A_61 A_60 A_59 A_58 A_57 A_56 A_55 A_54 A_53 A_52 A_51 \
        A_50 A_49 A_48 A_47 A_46 A_45 A_44 A_43 A_42 A_41 A_40 A_39 A_38 \
        A_37 A_36 A_35 A_34 A_33 A_32 B0_1 B1_1 S_7 S_6 S_5 S_4 W0_1 W1_1 \
        SM1_1_bit1 SM0_1_bit1) _sub8
    I8 (A_63 A_62 A_61 A_60 A_59 A_58 A_57 A_56 A_55 A_54 A_53 A_52 A_51 \
        A_50 A_49 A_48 A_47 A_46 A_45 A_44 A_43 A_42 A_41 A_40 A_39 A_38 \
        A_37 A_36 A_35 A_34 A_33 A_32 B0_0 B1_0 S_7 S_6 S_5 S_4 W0_0 W1_0 \
        SM1_1_bit0 SM0_1_bit0) _sub8
    I3 (A_31 A_30 A_29 A_28 A_27 A_26 A_25 A_24 A_23 A_22 A_21 A_20 A_19 \
        A_18 A_17 A_16 A_15 A_14 A_13 A_12 A_11 A_10 A_9 A_8 A_7 A_6 A_5 \
        A_4 A_3 A_2 A_1 A_0 B0_3 B1_3 S_3 S_2 S_1 S_0 W0_3 W1_3 SM1_0_bit3 \
        SM0_0_bit3) _sub8
    I2 (A_31 A_30 A_29 A_28 A_27 A_26 A_25 A_24 A_23 A_22 A_21 A_20 A_19 \
        A_18 A_17 A_16 A_15 A_14 A_13 A_12 A_11 A_10 A_9 A_8 A_7 A_6 A_5 \
        A_4 A_3 A_2 A_1 A_0 B0_2 B1_2 S_3 S_2 S_1 S_0 W0_2 W1_2 SM1_0_bit2 \
        SM0_0_bit2) _sub8
    I1 (A_31 A_30 A_29 A_28 A_27 A_26 A_25 A_24 A_23 A_22 A_21 A_20 A_19 \
        A_18 A_17 A_16 A_15 A_14 A_13 A_12 A_11 A_10 A_9 A_8 A_7 A_6 A_5 \
        A_4 A_3 A_2 A_1 A_0 B0_1 B1_1 S_3 S_2 S_1 S_0 W0_1 W1_1 SM1_0_bit1 \
        SM0_0_bit1) _sub8
    I0 (A_31 A_30 A_29 A_28 A_27 A_26 A_25 A_24 A_23 A_22 A_21 A_20 A_19 \
        A_18 A_17 A_16 A_15 A_14 A_13 A_12 A_11 A_10 A_9 A_8 A_7 A_6 A_5 \
        A_4 A_3 A_2 A_1 A_0 B0_0 B1_0 S_3 S_2 S_1 S_0 W0_0 W1_0 SM1_0_bit0 \
        SM0_0_bit0) _sub8
    I7 (\~R0_3 \~R1_3 Go SM0_0_bit3 SM0_1_bit3 SM1_0_bit3 SM1_1_bit3) \
        _sub9
    I6 (\~R0_2 \~R1_2 Go SM0_0_bit2 SM0_1_bit2 SM1_0_bit2 SM1_1_bit2) \
        _sub9
    I5 (\~R0_1 \~R1_1 Go SM0_0_bit1 SM0_1_bit1 SM1_0_bit1 SM1_1_bit1) \
        _sub9
    I4 (\~R0_0 \~R1_0 Go SM0_0_bit0 SM0_1_bit0 SM1_0_bit0 SM1_1_bit0) \
        _sub9
ends _sub10
// End of subcircuit definition.

// Library name: 16nm
// Cell name: and4_1x
// View name: schematic
// Inherited view list: spectre spice verilog behavioral functional hdl
//system verilogNetlist schematic cmos.sch cmos_sch veriloga ahdl
subckt and4_1x A B C D Y
    I15 (A B C D net1) nand4_1x
    I16 (net1 Y) inv_1x
ends and4_1x
// End of subcircuit definition.

// Library name: 16nm
// Cell name: Demux_2e1of4
// View name: schematic
// Inherited view list: spectre spice verilog behavioral functional hdl
//system verilogNetlist schematic cmos.sch cmos_sch veriloga ahdl
subckt Demux_2e1of4 A_15 A_14 A_13 A_12 A_11 A_10 A_9 A_8 A_7 A_6 A_5 A_4 \
        A_3 A_2 A_1 A_0 _1of4_1_3 _1of4_1_2 _1of4_1_1 _1of4_1_0 _1of4_2_3 \
        _1of4_2_2 _1of4_2_1 _1of4_2_0 En EnOut
    I15 (_1of4_1_3 _1of4_2_3 EnOut En A_15) and4_1x
    I14 (_1of4_1_2 _1of4_2_3 EnOut En A_14) and4_1x
    I13 (_1of4_1_1 _1of4_2_3 EnOut En A_13) and4_1x
    I12 (_1of4_1_0 _1of4_2_3 EnOut En A_12) and4_1x
    I11 (_1of4_1_3 _1of4_2_2 EnOut En A_11) and4_1x
    I10 (_1of4_1_2 _1of4_2_2 EnOut En A_10) and4_1x
    I9 (_1of4_1_1 _1of4_2_2 EnOut En A_9) and4_1x
    I8 (_1of4_1_0 _1of4_2_2 EnOut En A_8) and4_1x
    I7 (_1of4_1_3 _1of4_2_1 EnOut En A_7) and4_1x
    I6 (_1of4_1_2 _1of4_2_1 EnOut En A_6) and4_1x
    I5 (_1of4_1_1 _1of4_2_1 EnOut En A_5) and4_1x
    I4 (_1of4_1_0 _1of4_2_1 EnOut En A_4) and4_1x
    I3 (_1of4_1_3 _1of4_2_0 EnOut En A_3) and4_1x
    I2 (_1of4_1_2 _1of4_2_0 EnOut En A_2) and4_1x
    I1 (_1of4_1_1 _1of4_2_0 EnOut En A_1) and4_1x
    I0 (_1of4_1_0 _1of4_2_0 EnOut En A_0) and4_1x
ends Demux_2e1of4
// End of subcircuit definition.

// Library name: 16nm
// Cell name: or16_1x
// View name: schematic
// Inherited view list: spectre spice verilog behavioral functional hdl
//system verilogNetlist schematic cmos.sch cmos_sch veriloga ahdl
subckt or16_1x Y X_15 X_14 X_13 X_12 X_11 X_10 X_9 X_8 X_7 X_6 X_5 X_4 X_3 \
        X_2 X_1 X_0
    I2 (nX30 nX74 nX118 nX1512 Y) nand4_1x
    I0 (X_0 X_1 X_2 X_3 nX30) nor4_1x
    I1 (X_4 X_5 X_6 X_7 nX74) nor4_1x
    I3 (X_8 X_9 X_10 X_11 nX118) nor4_1x
    I4 (X_12 X_13 X_14 X_15 nX1512) nor4_1x
ends or16_1x
// End of subcircuit definition.

// Library name: 16nm
// Cell name: Demux_3e1of4
// View name: schematic
// Inherited view list: spectre spice verilog behavioral functional hdl
//system verilogNetlist schematic cmos.sch cmos_sch veriloga ahdl
subckt Demux_3e1of4 A_63 A_62 A_61 A_60 A_59 A_58 A_57 A_56 A_55 A_54 A_53 \
        A_52 A_51 A_50 A_49 A_48 A_47 A_46 A_45 A_44 A_43 A_42 A_41 A_40 \
        A_39 A_38 A_37 A_36 A_35 A_34 A_33 A_32 A_31 A_30 A_29 A_28 A_27 \
        A_26 A_25 A_24 A_23 A_22 A_21 A_20 A_19 A_18 A_17 A_16 A_15 A_14 \
        A_13 A_12 A_11 A_10 A_9 A_8 A_7 A_6 A_5 A_4 A_3 A_2 A_1 A_0 \
        _1of4_1_3 _1of4_1_2 _1of4_1_1 _1of4_1_0 _1of4_2_3 _1of4_2_2 \
        _1of4_2_1 _1of4_2_0 _1of4_3_3 _1of4_3_2 _1of4_3_1 _1of4_3_0 En \
        AddrValid
    I3 (A_63 A_62 A_61 A_60 A_59 A_58 A_57 A_56 A_55 A_54 A_53 A_52 A_51 \
        A_50 A_49 A_48 _1of4_1_3 _1of4_1_2 _1of4_1_1 _1of4_1_0 _1of4_2_3 \
        _1of4_2_2 _1of4_2_1 _1of4_2_0 En _1of4_3_3) Demux_2e1of4
    I2 (A_47 A_46 A_45 A_44 A_43 A_42 A_41 A_40 A_39 A_38 A_37 A_36 A_35 \
        A_34 A_33 A_32 _1of4_1_3 _1of4_1_2 _1of4_1_1 _1of4_1_0 _1of4_2_3 \
        _1of4_2_2 _1of4_2_1 _1of4_2_0 En _1of4_3_2) Demux_2e1of4
    I1 (A_31 A_30 A_29 A_28 A_27 A_26 A_25 A_24 A_23 A_22 A_21 A_20 A_19 \
        A_18 A_17 A_16 _1of4_1_3 _1of4_1_2 _1of4_1_1 _1of4_1_0 _1of4_2_3 \
        _1of4_2_2 _1of4_2_1 _1of4_2_0 En _1of4_3_1) Demux_2e1of4
    I0 (A_15 A_14 A_13 A_12 A_11 A_10 A_9 A_8 A_7 A_6 A_5 A_4 A_3 A_2 A_1 \
        A_0 _1of4_1_3 _1of4_1_2 _1of4_1_1 _1of4_1_0 _1of4_2_3 _1of4_2_2 \
        _1of4_2_1 _1of4_2_0 En _1of4_3_0) Demux_2e1of4
    I8 (net22 A_63 A_62 A_61 A_60 A_59 A_58 A_57 A_56 A_55 A_54 A_53 A_52 \
        A_51 A_50 A_49 A_48) or16_1x
    I7 (net23 A_47 A_46 A_45 A_44 A_43 A_42 A_41 A_40 A_39 A_38 A_37 A_36 \
        A_35 A_34 A_33 A_32) or16_1x
    I6 (net24 A_31 A_30 A_29 A_28 A_27 A_26 A_25 A_24 A_23 A_22 A_21 A_20 \
        A_19 A_18 A_17 A_16) or16_1x
    I17 (net25 A_15 A_14 A_13 A_12 A_11 A_10 A_9 A_8 A_7 A_6 A_5 A_4 A_3 \
        A_2 A_1 A_0) or16_1x
    I11 (net25 net24 net23 net22 AddrValid) or4_1x
ends Demux_3e1of4