// Generated for: spectre
// Generated on: Apr 20 03:08:09 2015
// Design library name: 16nm_Tests
// Design cell name: 6T_DataPath_Test
// Design view name: config
simulator lang=spectre
global 0 vdd! vcc!
