// "spectre" description for "ATSim", "Tag_read_ctrl_rev3", "spectre" 


simulator lang=spectre

subckt Tag_read_ctrl_rev3

ends Tag_read_ctrl_rev3