// Generated for: spectre
// Generated on: Mar  7 01:02:09 2015
// Design library name: 16nm_Tests
// Design cell name: 6T_MultiBank_32K_Test
// Design view name: config
simulator lang=spectre
global 0 vdd! vcc!
