// Generated for: spectre
// Generated on: Apr 30 02:49:36 2015
// Design library name: 16nm_Tests
// Design cell name: MCsetup_Test
// Design view name: schematic
simulator lang=spectre
global 0 vdd!
