// Generated for: spectre
// Generated on: Apr 26 06:59:42 2015
// Design library name: 16nm_Tests
// Design cell name: Compare22_Test
// Design view name: config
simulator lang=spectre
global 0 vdd! vcc!
