// Generated for: spectre
// Generated on: Mar  7 04:47:24 2015
// Design library name: 16nm_Tests
// Design cell name: 6T_8K_MultiBank_Test
// Design view name: config
simulator lang=spectre
global 0 vdd! vcc!
