// Generated for: spectre
// Generated on: May 21 23:16:18 2015
// Design library name: 20nm
// Design cell name: Dual_Supply_Word_Test
// Design view name: schematic
simulator lang=spectre
global 0 vcc! vdd!
