// Generated for: spectre
// Generated on: Apr 27 05:16:35 2015
// Design library name: 16nm_Tests
// Design cell name: Compare24_Test
// Design view name: config
simulator lang=spectre
global 0 vcc! vdd!
