// Generated for: spectre
// Generated on: Mar 10 05:39:03 2015
// Design library name: 16nm_Tests
// Design cell name: 6T_MultiBank_8K_4K_Test
// Design view name: config
simulator lang=spectre
global 0 vdd! vcc!
