// Generated for: spectre
// Generated on: May  2 03:25:09 2015
// Design library name: 16nm_Tests
// Design cell name: MCsetup_Test
// Design view name: schematic
simulator lang=spectre
global 0 vdd!
