// Generated for: spectre
// Generated on: Apr 22 12:22:20 2015
// Design library name: 16nm_Tests
// Design cell name: ringOsc_Test
// Design view name: schematic
simulator lang=spectre
global 0 vdd!
