// Generated for: spectre
// Generated on: Apr 26 03:35:52 2015
// Design library name: 16nm_Tests
// Design cell name: 6T_BANK_Test
// Design view name: config
simulator lang=spectre
global 0 vdd! vcc!
parameters vdd=1.25 vcc=vdd
include "/software/cadence/ncsu-FreePDK15/hspice_16nm_hp.include"
// BEGIN Flat Interface Elements
// Flattened IE at /~ReadData<10> uses port path 99999
// Flattened IE at /~WriteData<11> uses port path 99998
// Flattened IE at /~ReadData<3> uses port path 99997
// Flattened IE at /~A<4> uses port path 99996
// Flattened IE at /~WriteData<13> uses port path 99995
// Flattened IE at /~WriteData<17> uses port path 99994
// Flattened IE at /~A<8> uses port path 99993
// Flattened IE at /~A<13> uses port path 99992
// Flattened IE at /~RAck<0> uses port path 99991
// Flattened IE at /~A<19> uses port path 99990
// Flattened IE at /~A<5> uses port path 99989
// Flattened IE at /~RW<1> uses port path 99988
// Flattened IE at /net013<1> uses port path 99987
// Flattened IE at /~ReadData<20> uses port path 99986
// Flattened IE at /~A<15> uses port path 99985
// Flattened IE at /~RAck<3> uses port path 99984
// Flattened IE at /~RAck<5> uses port path 99983
// Flattened IE at /~WAck<5> uses port path 99982
// Flattened IE at /~ReadData<24> uses port path 99981
// Flattened IE at /~A<6> uses port path 99980
// Flattened IE at /~WriteData<28> uses port path 99979
// Flattened IE at /~A<16> uses port path 99978
// Flattened IE at /~ReadData<23> uses port path 99977
// Flattened IE at /~WriteData<27> uses port path 99976
// Flattened IE at /~ReadData<25> uses port path 99975
// Flattened IE at /~ReadData<11> uses port path 99974
// Flattened IE at /~A<11> uses port path 99973
// Flattened IE at /~WriteData<19> uses port path 99972
// Flattened IE at /~ReadData<7> uses port path 99971
// Flattened IE at /~A<10> uses port path 99970
// Flattened IE at /~A<9> uses port path 99969
// Flattened IE at /~WriteData<7> uses port path 99968
// Flattened IE at /~WriteData<29> uses port path 99967
// Flattened IE at /~ReadData<27> uses port path 99966
// Flattened IE at /~WriteData<10> uses port path 99965
// Flattened IE at /~WriteData<1> uses port path 99964
// Flattened IE at /~WAck<4> uses port path 99963
// Flattened IE at /~WriteData<22> uses port path 99962
// Flattened IE at /~WriteData<15> uses port path 99961
// Flattened IE at /~ReadData<15> uses port path 99960
// Flattened IE at /~WriteData<0> uses port path 99959
// Flattened IE at /~A<2> uses port path 99958
// Flattened IE at /~A<14> uses port path 99957
// Flattened IE at /~WAck<3> uses port path 99956
// Flattened IE at /~ReadData<22> uses port path 99955
// Flattened IE at /~RW<0> uses port path 99954
// Flattened IE at /~ReadData<21> uses port path 99953
// Flattened IE at /~WAck<2> uses port path 99952
// Flattened IE at /~WriteData<9> uses port path 99951
// Flattened IE at /~WriteData<4> uses port path 99950
// Flattened IE at /~ReadData<19> uses port path 99949
// Flattened IE at /~ReadData<18> uses port path 99948
// Flattened IE at /~ReadData<29> uses port path 99947
// Flattened IE at /~ReadData<17> uses port path 99946
// Flattened IE at /~RAck<4> uses port path 99945
// Flattened IE at /~ReadData<13> uses port path 99944
// Flattened IE at /~ReadData<16> uses port path 99943
// Flattened IE at /~ReadData<0> uses port path 99942
// Flattened IE at /~A<7> uses port path 99941
// Flattened IE at /~RAck<7> uses port path 99940
// Flattened IE at /~ReadData<9> uses port path 99939
// Flattened IE at /~WAck<0> uses port path 99938
// Flattened IE at /~WriteData<30> uses port path 99937
// Flattened IE at /~Ack uses port path 99936
// Flattened IE at /~WriteData<12> uses port path 99935
// Flattened IE at /~ReadData<1> uses port path 99934
// Flattened IE at /~ReadData<5> uses port path 99933
// Flattened IE at /~A<3> uses port path 99932
// Flattened IE at /~ReadData<6> uses port path 99931
// Flattened IE at /~ReadData<8> uses port path 99930
// Flattened IE at /~WAck<6> uses port path 99929
// Flattened IE at /~WriteData<8> uses port path 99928
// Flattened IE at /~ReadData<14> uses port path 99927
// Flattened IE at /~ReadData<26> uses port path 99926
// Flattened IE at /~WAck<7> uses port path 99925
// Flattened IE at /~ReadData<4> uses port path 99924
// Flattened IE at /~RAck<6> uses port path 99923
// Flattened IE at /~WriteData<16> uses port path 99922
// Flattened IE at /~WriteData<6> uses port path 99921
// Flattened IE at /~WAck<1> uses port path 99920
// Flattened IE at /net013<0> uses port path 99919
// Flattened IE at /~A<12> uses port path 99918
// Flattened IE at /~WriteData<20> uses port path 99917
// Flattened IE at /~RAck<2> uses port path 99916
// Flattened IE at /~WriteData<23> uses port path 99915
// Flattened IE at /~WriteData<24> uses port path 99914
// Flattened IE at /net013<2> uses port path 99913
// Flattened IE at /~WriteData<31> uses port path 99912
// Flattened IE at /~A<17> uses port path 99911
// Flattened IE at /~WriteData<3> uses port path 99910
// Flattened IE at /~A<18> uses port path 99909
// Flattened IE at /~ReadData<12> uses port path 99908
// Flattened IE at /~WriteData<26> uses port path 99907
// Flattened IE at /~WriteData<18> uses port path 99906
// Flattened IE at /~WriteData<5> uses port path 99905
// Flattened IE at /~WriteData<21> uses port path 99904
// Flattened IE at /net013<3> uses port path 99903
// Flattened IE at /~WriteData<25> uses port path 99902
// Flattened IE at /~RAck<1> uses port path 99901
// Flattened IE at /~A<1> uses port path 99900
// Flattened IE at /~ReadData<30> uses port path 99899
// Flattened IE at /net013<4> uses port path 99898
// Flattened IE at /~ReadData<28> uses port path 99897
// Flattened IE at /~ReadData<2> uses port path 99896
// Flattened IE at /~ReadData<31> uses port path 99895
// Flattened IE at /~WriteData<2> uses port path 99894
// Flattened IE at /~A<0> uses port path 99893
// Flattened IE at /~WriteData<14> uses port path 99892
// END Flat Interface Elements

// Library name: 16nm
// Cell name: 6T
// View name: schematic
// Inherited view list: spectre spice verilog behavioral functional hdl
//system verilogNetlist schematic cmos.sch cmos_sch veriloga ahdl
subckt _sub42 A B0 B1
    M5 (Q0 Q1 0 0) nfet w=60n l=20n nfin=1 m=1 degradation=no
    M4 (Q1 Q0 0 0) nfet w=60n l=20n nfin=1 m=1 degradation=no
    M1 (Q1 A B1 0) nfet w=120n l=20n nfin=2 m=1 degradation=no
    M0 (Q0 A B0 0) nfet w=120n l=20n nfin=2 m=1 degradation=no
    M3 (Q0 Q1 vdd! vdd!) pfet w=100n l=20n nfin=1 m=1 degradation=no
    M2 (Q1 Q0 vdd! vdd!) pfet w=100n l=20n nfin=1 m=1 degradation=no
ends _sub42
// End of subcircuit definition.

// Library name: 16nm
// Cell name: 6T_4x
// View name: schematic
// Inherited view list: spectre spice verilog behavioral functional hdl
//system verilogNetlist schematic cmos.sch cmos_sch veriloga ahdl
subckt _sub43 A_3 A_2 A_1 A_0 B0 B1
    I3 (A_0 B0 B1) _sub42
    I2 (A_1 B0 B1) _sub42
    I1 (A_2 B0 B1) _sub42
    I0 (A_3 B0 B1) _sub42
ends _sub43
// End of subcircuit definition.

// Library name: 16nm
// Cell name: 6T_32x
// View name: schematic
// Inherited view list: spectre spice verilog behavioral functional hdl
//system verilogNetlist schematic cmos.sch cmos_sch veriloga ahdl
subckt _sub44 B0 B1 A_31 A_30 A_29 A_28 A_27 A_26 A_25 A_24 A_23 A_22 \
        A_21 A_20 A_19 A_18 A_17 A_16 A_15 A_14 A_13 A_12 A_11 A_10 A_9 \
        A_8 A_7 A_6 A_5 A_4 A_3 A_2 A_1 A_0
    I7 (A_3 A_2 A_1 A_0 B0 B1) _sub43
    I6 (A_7 A_6 A_5 A_4 B0 B1) _sub43
    I5 (A_11 A_10 A_9 A_8 B0 B1) _sub43
    I4 (A_15 A_14 A_13 A_12 B0 B1) _sub43
    I3 (A_19 A_18 A_17 A_16 B0 B1) _sub43
    I2 (A_23 A_22 A_21 A_20 B0 B1) _sub43
    I1 (A_27 A_26 A_25 A_24 B0 B1) _sub43
    I0 (A_31 A_30 A_29 A_28 B0 B1) _sub43
ends _sub44
// End of subcircuit definition.

// Library name: 16nm
// Cell name: 6T_32x_CTRL
// View name: schematic
// Inherited view list: spectre spice verilog behavioral functional hdl
//system verilogNetlist schematic cmos.sch cmos_sch veriloga ahdl
subckt _sub45 B0 B1 S W0 W1
    M10 (B1 B0 net22 vdd!) pfet w=100n l=20n nfin=1 m=1 degradation=no
    M9 (net22 W1 vdd! vdd!) pfet w=100n l=20n nfin=1 m=1 degradation=no
    M8 (B0 B1 net23 vdd!) pfet w=100n l=20n nfin=1 m=1 degradation=no
    M7 (net23 W0 vdd! vdd!) pfet w=100n l=20n nfin=1 m=1 degradation=no
    M2 (B1 S vdd! vdd!) pfet w=100n l=20n nfin=1 m=1 degradation=no
    M0 (B0 S vdd! vdd!) pfet w=100n l=20n nfin=1 m=1 degradation=no
    M6 (B1 W1 net24 0) nfet w=60n l=20n nfin=1 m=1 degradation=no
    M5 (net24 S 0 0) nfet w=60n l=20n nfin=1 m=1 degradation=no
    M4 (net25 S 0 0) nfet w=60n l=20n nfin=1 m=1 degradation=no
    M3 (B0 W0 net25 0) nfet w=60n l=20n nfin=1 m=1 degradation=no
ends _sub45
// End of subcircuit definition.

// Library name: 16nm
// Cell name: nand4_1x
// View name: schematic
// Inherited view list: spectre spice verilog behavioral functional hdl
//system verilogNetlist schematic cmos.sch cmos_sch veriloga ahdl
subckt nand4_1x A B C D Y
    M5 (Y D vdd! vdd!) pfet w=100n l=20n nfin=1 m=1 degradation=no
    M4 (Y C vdd! vdd!) pfet w=100n l=20n nfin=1 m=1 degradation=no
    M1 (Y B vdd! vdd!) pfet w=100n l=20n nfin=1 m=1 degradation=no
    M0 (Y A vdd! vdd!) pfet w=100n l=20n nfin=1 m=1 degradation=no
    M7 (net23 D 0 0) nfet w=240n l=20n nfin=1 m=1 degradation=no
    M6 (net25 C net23 0) nfet w=240n l=20n nfin=1 m=1 degradation=no
    M3 (net24 B net25 0) nfet w=240n l=20n nfin=1 m=1 degradation=no
    M2 (Y A net24 0) nfet w=240n l=20n nfin=1 m=1 degradation=no
ends nand4_1x
// End of subcircuit definition.

// Library name: 16nm
// Cell name: 6T_32x4
// View name: schematic
// Inherited view list: spectre spice verilog behavioral functional hdl
//system verilogNetlist schematic cmos.sch cmos_sch veriloga ahdl
subckt _sub46 A_31 A_30 A_29 A_28 A_27 A_26 A_25 A_24 A_23 A_22 A_21 \
        A_20 A_19 A_18 A_17 A_16 A_15 A_14 A_13 A_12 A_11 A_10 A_9 A_8 \
        A_7 A_6 A_5 A_4 A_3 A_2 A_1 A_0 B0 B1 S_3 S_2 S_1 S_0 W0 W1 SM1 \
        SM0
    ISRAM3 (B0P4 B1P4 A_31 A_30 A_29 A_28 A_27 A_26 A_25 A_24 A_23 A_22 \
        A_21 A_20 A_19 A_18 A_17 A_16 A_15 A_14 A_13 A_12 A_11 A_10 A_9 \
        A_8 A_7 A_6 A_5 A_4 A_3 A_2 A_1 A_0) _sub44
    ISRAM1 (B0P2 B1P2 A_31 A_30 A_29 A_28 A_27 A_26 A_25 A_24 A_23 A_22 \
        A_21 A_20 A_19 A_18 A_17 A_16 A_15 A_14 A_13 A_12 A_11 A_10 A_9 \
        A_8 A_7 A_6 A_5 A_4 A_3 A_2 A_1 A_0) _sub44
    ISRAM2 (B0P3 B1P3 A_31 A_30 A_29 A_28 A_27 A_26 A_25 A_24 A_23 A_22 \
        A_21 A_20 A_19 A_18 A_17 A_16 A_15 A_14 A_13 A_12 A_11 A_10 A_9 \
        A_8 A_7 A_6 A_5 A_4 A_3 A_2 A_1 A_0) _sub44
    ISRAM0 (B0P1 B1P1 A_31 A_30 A_29 A_28 A_27 A_26 A_25 A_24 A_23 A_22 \
        A_21 A_20 A_19 A_18 A_17 A_16 A_15 A_14 A_13 A_12 A_11 A_10 A_9 \
        A_8 A_7 A_6 A_5 A_4 A_3 A_2 A_1 A_0) _sub44
    M1 (B0P1 B0 net67 0) nfet w=60n l=20n nfin=1 m=1 degradation=no
    M0 (net67 S_0 0 0) nfet w=60n l=20n nfin=1 m=1 degradation=no
    M3 (net66 S_0 0 0) nfet w=60n l=20n nfin=1 m=1 degradation=no
    M10 (B1P2 B1 net65 0) nfet w=60n l=20n nfin=1 m=1 degradation=no
    M9 (net65 S_1 0 0) nfet w=60n l=20n nfin=1 m=1 degradation=no
    M6 (net64 S_1 0 0) nfet w=60n l=20n nfin=1 m=1 degradation=no
    M7 (B0P2 B0 net64 0) nfet w=60n l=20n nfin=1 m=1 degradation=no
    M13 (B0P3 B0 net63 0) nfet w=60n l=20n nfin=1 m=1 degradation=no
    M12 (net63 S_2 0 0) nfet w=60n l=20n nfin=1 m=1 degradation=no
    M15 (net62 S_2 0 0) nfet w=60n l=20n nfin=1 m=1 degradation=no
    M16 (B1P3 B1 net62 0) nfet w=60n l=20n nfin=1 m=1 degradation=no
    M22 (B1P4 B1 net61 0) nfet w=60n l=20n nfin=1 m=1 degradation=no
    M21 (net61 S_3 0 0) nfet w=60n l=20n nfin=1 m=1 degradation=no
    M18 (net60 S_3 0 0) nfet w=60n l=20n nfin=1 m=1 degradation=no
    M19 (B0P4 B0 net60 0) nfet w=60n l=20n nfin=1 m=1 degradation=no
    M4 (B1P1 B1 net66 0) nfet w=60n l=20n nfin=1 m=1 degradation=no
    I4 (B0P1 B1P1 S_0 W0 W1) _sub45
    I11 (B0P2 B1P2 S_1 W0 W1) _sub45
    I20 (B0P3 B1P3 S_2 W0 W1) _sub45
    I27 (B0P4 B1P4 S_3 W0 W1) _sub45
    I16 (B1P1 B1P2 B1P3 B1P4 SM1) nand4_1x
    I13 (B0P1 B0P2 B0P3 B0P4 SM0) nand4_1x
    C7 (B1P4 0) capacitor c=1.2822f m=1
    C3 (B1P2 0) capacitor c=1.2822f m=1
    C5 (B1P3 0) capacitor c=1.2822f m=1
    C6 (B0P4 0) capacitor c=1.2822f m=1
    C4 (B0P3 0) capacitor c=1.2822f m=1
    C2 (B0P2 0) capacitor c=1.2822f m=1
    C1 (B1P1 0) capacitor c=1.2822f m=1
    C0 (B0P1 0) capacitor c=1.2822f m=1
    M5 (B1P1 S_0 vdd! vdd!) pfet w=100n l=20n nfin=1 m=1 degradation=no
    M2 (B0P1 S_0 vdd! vdd!) pfet w=100n l=20n nfin=1 m=1 degradation=no
    M11 (B1P2 S_1 vdd! vdd!) pfet w=100n l=20n nfin=1 m=1 \
        degradation=no
    M8 (B0P2 S_1 vdd! vdd!) pfet w=100n l=20n nfin=1 m=1 degradation=no
    M17 (B1P3 S_2 vdd! vdd!) pfet w=100n l=20n nfin=1 m=1 \
        degradation=no
    M14 (B0P3 S_2 vdd! vdd!) pfet w=100n l=20n nfin=1 m=1 \
        degradation=no
    M20 (B0P4 S_3 vdd! vdd!) pfet w=100n l=20n nfin=1 m=1 \
        degradation=no
    M23 (B1P4 S_3 vdd! vdd!) pfet w=100n l=20n nfin=1 m=1 \
        degradation=no
ends _sub46
// End of subcircuit definition.

// Library name: 16nm
// Cell name: 6T_SetRead
// View name: schematic
// Inherited view list: spectre spice verilog behavioral functional hdl
//system verilogNetlist schematic cmos.sch cmos_sch veriloga ahdl
subckt _sub47 \~R0 \~R1 Go SM0_0 SM0_1 SM1_0 SM1_1
    M5 (\~R0 SM0_0 net18 0) nfet w=60n l=20n nfin=1 m=1 degradation=no
    M3 (\~R0 SM0_1 net18 0) nfet w=60n l=20n nfin=1 m=1 degradation=no
    M2 (net18 Go 0 0) nfet w=120n l=20n nfin=2 m=1 degradation=no
    M1 (\~R1 SM1_1 net18 0) nfet w=60n l=20n nfin=1 m=1 degradation=no
    M0 (\~R1 SM1_0 net18 0) nfet w=60n l=20n nfin=1 m=1 degradation=no
ends _sub47
// End of subcircuit definition.

// Library name: 16nm
// Cell name: 6T_CHUNK
// View name: schematic
// Inherited view list: spectre spice verilog behavioral functional hdl
//system verilogNetlist schematic cmos.sch cmos_sch veriloga ahdl
subckt _sub48 \~R0_3 \~R0_2 \~R0_1 \~R0_0 \~R1_3 \~R1_2 \~R1_1 \~R1_0 \
        A_63 A_62 A_61 A_60 A_59 A_58 A_57 A_56 A_55 A_54 A_53 A_52 \
        A_51 A_50 A_49 A_48 A_47 A_46 A_45 A_44 A_43 A_42 A_41 A_40 \
        A_39 A_38 A_37 A_36 A_35 A_34 A_33 A_32 A_31 A_30 A_29 A_28 \
        A_27 A_26 A_25 A_24 A_23 A_22 A_21 A_20 A_19 A_18 A_17 A_16 \
        A_15 A_14 A_13 A_12 A_11 A_10 A_9 A_8 A_7 A_6 A_5 A_4 A_3 A_2 \
        A_1 A_0 B0_3 B0_2 B0_1 B0_0 B1_3 B1_2 B1_1 B1_0 S_7 S_6 S_5 S_4 \
        S_3 S_2 S_1 S_0 W0_3 W0_2 W0_1 W0_0 W1_3 W1_2 W1_1 W1_0 Go
    IARRAY7 (A_63 A_62 A_61 A_60 A_59 A_58 A_57 A_56 A_55 A_54 A_53 \
        A_52 A_51 A_50 A_49 A_48 A_47 A_46 A_45 A_44 A_43 A_42 A_41 \
        A_40 A_39 A_38 A_37 A_36 A_35 A_34 A_33 A_32 B0_3 B1_3 S_7 S_6 \
        S_5 S_4 W0_3 W1_3 SM1_1_bit3 SM0_1_bit3) _sub46
    IARRAY6 (A_63 A_62 A_61 A_60 A_59 A_58 A_57 A_56 A_55 A_54 A_53 \
        A_52 A_51 A_50 A_49 A_48 A_47 A_46 A_45 A_44 A_43 A_42 A_41 \
        A_40 A_39 A_38 A_37 A_36 A_35 A_34 A_33 A_32 B0_2 B1_2 S_7 S_6 \
        S_5 S_4 W0_2 W1_2 SM1_1_bit2 SM0_1_bit2) _sub46
    IARRAY5 (A_63 A_62 A_61 A_60 A_59 A_58 A_57 A_56 A_55 A_54 A_53 \
        A_52 A_51 A_50 A_49 A_48 A_47 A_46 A_45 A_44 A_43 A_42 A_41 \
        A_40 A_39 A_38 A_37 A_36 A_35 A_34 A_33 A_32 B0_1 B1_1 S_7 S_6 \
        S_5 S_4 W0_1 W1_1 SM1_1_bit1 SM0_1_bit1) _sub46
    IARRAY4 (A_63 A_62 A_61 A_60 A_59 A_58 A_57 A_56 A_55 A_54 A_53 \
        A_52 A_51 A_50 A_49 A_48 A_47 A_46 A_45 A_44 A_43 A_42 A_41 \
        A_40 A_39 A_38 A_37 A_36 A_35 A_34 A_33 A_32 B0_0 B1_0 S_7 S_6 \
        S_5 S_4 W0_0 W1_0 SM1_1_bit0 SM0_1_bit0) _sub46
    IARRAY3 (A_31 A_30 A_29 A_28 A_27 A_26 A_25 A_24 A_23 A_22 A_21 \
        A_20 A_19 A_18 A_17 A_16 A_15 A_14 A_13 A_12 A_11 A_10 A_9 A_8 \
        A_7 A_6 A_5 A_4 A_3 A_2 A_1 A_0 B0_3 B1_3 S_3 S_2 S_1 S_0 W0_3 \
        W1_3 SM1_0_bit3 SM0_0_bit3) _sub46
    IARRAY2 (A_31 A_30 A_29 A_28 A_27 A_26 A_25 A_24 A_23 A_22 A_21 \
        A_20 A_19 A_18 A_17 A_16 A_15 A_14 A_13 A_12 A_11 A_10 A_9 A_8 \
        A_7 A_6 A_5 A_4 A_3 A_2 A_1 A_0 B0_2 B1_2 S_3 S_2 S_1 S_0 W0_2 \
        W1_2 SM1_0_bit2 SM0_0_bit2) _sub46
    IARRAY1 (A_31 A_30 A_29 A_28 A_27 A_26 A_25 A_24 A_23 A_22 A_21 \
        A_20 A_19 A_18 A_17 A_16 A_15 A_14 A_13 A_12 A_11 A_10 A_9 A_8 \
        A_7 A_6 A_5 A_4 A_3 A_2 A_1 A_0 B0_1 B1_1 S_3 S_2 S_1 S_0 W0_1 \
        W1_1 SM1_0_bit1 SM0_0_bit1) _sub46
    IARRAY0 (A_31 A_30 A_29 A_28 A_27 A_26 A_25 A_24 A_23 A_22 A_21 \
        A_20 A_19 A_18 A_17 A_16 A_15 A_14 A_13 A_12 A_11 A_10 A_9 A_8 \
        A_7 A_6 A_5 A_4 A_3 A_2 A_1 A_0 B0_0 B1_0 S_3 S_2 S_1 S_0 W0_0 \
        W1_0 SM1_0_bit0 SM0_0_bit0) _sub46
    I7 (\~R0_3 \~R1_3 Go SM0_0_bit3 SM0_1_bit3 SM1_0_bit3 SM1_1_bit3) \
        _sub47
    I6 (\~R0_2 \~R1_2 Go SM0_0_bit2 SM0_1_bit2 SM1_0_bit2 SM1_1_bit2) \
        _sub47
    I5 (\~R0_1 \~R1_1 Go SM0_0_bit1 SM0_1_bit1 SM1_0_bit1 SM1_1_bit1) \
        _sub47
    I4 (\~R0_0 \~R1_0 Go SM0_0_bit0 SM0_1_bit0 SM1_0_bit0 SM1_1_bit0) \
        _sub47
ends _sub48
// End of subcircuit definition.

// Library name: 16nm
// Cell name: inv_1x
// View name: schematic
// Inherited view list: spectre spice verilog behavioral functional hdl
//system verilogNetlist schematic cmos.sch cmos_sch veriloga ahdl
subckt inv_1x A Y
    M0 (Y A 0 0) nfet w=60n l=20n nfin=1 m=1 degradation=no
    M1 (Y A vdd! vdd!) pfet w=100n l=20n nfin=1 m=1 degradation=no
ends inv_1x
// End of subcircuit definition.

// Library name: 16nm
// Cell name: nand_1x
// View name: schematic
// Inherited view list: spectre spice verilog behavioral functional hdl
//system verilogNetlist schematic cmos.sch cmos_sch veriloga ahdl
subckt nand_1x A B Y
    M1 (Y B vdd! vdd!) pfet w=100n l=20n nfin=1 m=1 degradation=no
    M0 (Y A vdd! vdd!) pfet w=100n l=20n nfin=1 m=1 degradation=no
    M3 (net22 B 0 0) nfet w=120n l=20n nfin=1 m=1 degradation=no
    M2 (Y A net22 0) nfet w=120n l=20n nfin=1 m=1 degradation=no
ends nand_1x
// End of subcircuit definition.

// Library name: 16nm
// Cell name: nor_1x
// View name: schematic
// Inherited view list: spectre spice verilog behavioral functional hdl
//system verilogNetlist schematic cmos.sch cmos_sch veriloga ahdl
subckt nor_1x A B Y
    M3 (Y B or_pd_ps vdd!) pfet w=200n l=20n nfin=1 m=1 degradation=no
    M2 (or_pd_ps A vdd! vdd!) pfet w=200n l=20n nfin=1 m=1 \
        degradation=no
    M1 (Y B 0 0) nfet w=60n l=20n nfin=1 m=1 degradation=no
    M0 (Y A 0 0) nfet w=60n l=20n nfin=1 m=1 degradation=no
ends nor_1x
// End of subcircuit definition.

// Library name: 16nm
// Cell name: or_1x
// View name: schematic
// Inherited view list: spectre spice verilog behavioral functional hdl
//system verilogNetlist schematic cmos.sch cmos_sch veriloga ahdl
subckt or_1x A B Y
    I6 (A B AnorB) nor_1x
    I7 (AnorB Y) inv_1x
ends or_1x
// End of subcircuit definition.

// Library name: 16nm
// Cell name: inv_weak_1x
// View name: schematic
// Inherited view list: spectre spice verilog behavioral functional hdl
//system verilogNetlist schematic cmos.sch cmos_sch veriloga ahdl
subckt inv_weak_1x A Y
    M2 (net13 vdd! 0 0) nfet w=60n l=20n nfin=1 ls=105n  m=1 \
        degradation=no
    M0 (Y A net13 0) nfet w=60n l=20n nfin=1 ls=105n  m=1 \
        degradation=no
    M3 (net14 0 vdd! vdd!) pfet w=100n l=20n nfin=1 m=1 degradation=no
    M1 (Y A net14 vdd!) pfet w=100n l=20n nfin=1 m=1 degradation=no
ends inv_weak_1x
// End of subcircuit definition.

// Library name: 16nm
// Cell name: TH22
// View name: schematic
// Inherited view list: spectre spice verilog behavioral functional hdl
//system verilogNetlist schematic cmos.sch cmos_sch veriloga ahdl
subckt TH22 A B Y
    M5 (Y net5 0 0) nfet w=60n l=20n nfin=1 m=1 degradation=no
    M4 (net5 Y net9 0) nfet w=120n l=20n nfin=1 m=1 degradation=no
    M3 (net9 B 0 0) nfet w=120n l=20n nfin=1 m=1 degradation=no
    M2 (net9 A 0 0) nfet w=120n l=20n nfin=1 m=1 degradation=no
    M1 (net5 B net17 0) nfet w=120n l=20n nfin=1 m=1 degradation=no
    M0 (net17 A 0 0) nfet w=120n l=20n nfin=1 m=1 degradation=no
    M11 (Y net5 vdd! vdd!) pfet w=100n l=20n nfin=1 m=1 degradation=no
    M10 (net5 B net032 vdd!) pfet w=200n l=20n nfin=1 m=1 \
        degradation=no
    M9 (net032 A vdd! vdd!) pfet w=200n l=20n nfin=1 m=1 degradation=no
    M8 (net037 B vdd! vdd!) pfet w=200n l=20n nfin=1 m=1 degradation=no
    M7 (net037 A vdd! vdd!) pfet w=200n l=20n nfin=1 m=1 degradation=no
    M6 (net5 Y net037 vdd!) pfet w=200n l=20n nfin=1 m=1 degradation=no
ends TH22
// End of subcircuit definition.

// Library name: 16nm
// Cell name: PCHBd
// View name: schematic
// Inherited view list: spectre spice verilog behavioral functional hdl
//system verilogNetlist schematic cmos.sch cmos_sch veriloga ahdl
subckt PCHBd R0i\+1 R1i\+1 Ai R0i R1i Ai\+1
    I32 (\~R0 R0i\+1) inv_1x
    I5 (\~R1 R1i\+1) inv_1x
    I35 (Ai \~ack) inv_1x
    M16 (\~R0 R0i net034 0) nfet w=60n l=20n nfin=1 m=1 degradation=no
    M3 (\~R1 R1i net033 0) nfet w=60n l=20n nfin=1 m=1 degradation=no
    M4 (net034 oE 0 0) nfet w=60n l=20n nfin=1 m=1 degradation=no
    M5 (net033 oE 0 0) nfet w=60n l=20n nfin=1 m=1 degradation=no
    M10 (\~R0 oE vdd! vdd!) pfet w=200n l=20n nfin=1 m=1 degradation=no
    M1 (\~R1 oE vdd! vdd!) pfet w=200n l=20n nfin=1 m=1 degradation=no
    I6 (\~R1 \~R0 outValid) nand_1x
    I9 (R0i R1i inValid) or_1x
    I2 (R0i\+1 \~R0) inv_weak_1x
    I33 (R1i\+1 \~R1) inv_weak_1x
    I12 (outValid inValid Ai) TH22
    I30 (\~ack Ai\+1 oE) TH22
ends PCHBd
// End of subcircuit definition.

// Library name: 16nm
// Cell name: THaC
// View name: schematic
// Inherited view list: spectre spice verilog behavioral functional hdl
//system verilogNetlist schematic cmos.sch cmos_sch veriloga ahdl
subckt THaC A Y C\- B\+
    M8 (net11 A 0 A) nfet w=120n l=20n nfin=1 m=1 degradation=no
    M5 (net7 A net33 A) nfet w=120n l=20n nfin=1 m=1 degradation=no
    M6 (net7 Y net11 Y) nfet w=120n l=20n nfin=1 m=1 degradation=no
    M9 (net11 C\- 0 C\-) nfet w=120n l=20n nfin=1 m=1 degradation=no
    M7 (net33 \~B\+ 0 \~B\+) nfet w=120n l=20n nfin=1 m=1 \
        degradation=no
    I2 (net7 Y) inv_1x
    I9 (B\+ \~B\+) inv_1x
    M4 (net7 Y net17 Y) pfet w=100n l=20n nfin=1 m=1 degradation=no
    M3 (net7 C\- net32 C\-) pfet w=100n l=20n nfin=1 m=1 degradation=no
    M0 (net32 A vdd! A) pfet w=100n l=20n nfin=1 m=1 degradation=no
    M2 (net17 \~B\+ vdd! \~B\+) pfet w=100n l=20n nfin=1 m=1 \
        degradation=no
    M1 (net17 A vdd! A) pfet w=100n l=20n nfin=1 m=1 degradation=no
ends THaC
// End of subcircuit definition.

// Library name: 16nm
// Cell name: PCHB_Write
// View name: schematic
// Inherited view list: spectre spice verilog behavioral functional hdl
//system verilogNetlist schematic cmos.sch cmos_sch veriloga ahdl
subckt PCHB_Write B0 B1 outAck R0i R1i W0 W1
    I34 (outAck net027) inv_1x
    I5 (net029 B1) inv_1x
    I4 (net18 B0) inv_1x
    I12 (inValid outAck outValid inAck) THaC
    M5 (net026 oE 0 0) nfet w=60n l=20n nfin=1 m=1 degradation=no
    M4 (net22 oE 0 0) nfet w=60n l=20n nfin=1 m=1 degradation=no
    M3 (net029 R1i net026 0) nfet w=60n l=20n nfin=1 m=1 degradation=no
    M2 (net18 R0i net22 0) nfet w=60n l=20n nfin=1 m=1 degradation=no
    M1 (net029 oE vdd! vdd!) pfet w=200n l=20n nfin=1 m=1 \
        degradation=no
    M0 (net18 oE vdd! vdd!) pfet w=200n l=20n nfin=1 m=1 degradation=no
    I6 (net029 net18 outValid) nand_1x
    I9 (R0i R1i inValid) or_1x
    I2 (B0 net18) inv_weak_1x
    I3 (B1 net029) inv_weak_1x
    I11 (net027 inAck oE) TH22
    I31 (W1 W0 inAck) nor_1x
ends PCHB_Write
// End of subcircuit definition.

// Library name: 16nm
// Cell name: and_1x
// View name: schematic
// Inherited view list: spectre spice verilog behavioral functional hdl
//system verilogNetlist schematic cmos.sch cmos_sch veriloga ahdl
subckt and_1x A B Y
    I7 (A B ntYbar) nand_1x
    I6 (ntYbar Y) inv_1x
ends and_1x
// End of subcircuit definition.

// Library name: 16nm
// Cell name: and4_1x
// View name: schematic
// Inherited view list: spectre spice verilog behavioral functional hdl
//system verilogNetlist schematic cmos.sch cmos_sch veriloga ahdl
subckt and4_1x A B C D Y
    I15 (A B C D net1) nand4_1x
    I16 (net1 Y) inv_1x
ends and4_1x
// End of subcircuit definition.

// Library name: 16nm
// Cell name: WCHB_Read
// View name: schematic
// Inherited view list: spectre spice verilog behavioral functional hdl
//system verilogNetlist schematic cmos.sch cmos_sch veriloga ahdl
subckt WCHB_Read Lack_1 Lack_0 L0_1 L0_0 L1_1 L1_0 Rack Out_3 Out_2 \
        Out_1 Out_0
    I23 (n0_1 n1_1 Lack_1) nor_1x
    I12 (n0_0 n1_0 Lack_0) nor_1x
    I34 (\~Out_0 \~Out_1 \~Out_2 \~Out_3 outAck) and4_1x
    I29 (n0_0 n1_1 m_2) nand_1x
    I26 (n1_0 n1_1 m_3) nand_1x
    I25 (n1_0 n0_1 m_1) nand_1x
    I24 (n0_0 n0_1 m_0) nand_1x
    I28 (Rack m_2 \~Out_2) TH22
    I27 (Rack m_3 \~Out_3) TH22
    I0 (L0_0 outAck n0_0) TH22
    I7 (Rack m_0 \~Out_0) TH22
    I1 (L1_0 outAck n1_0) TH22
    I21 (L0_1 outAck n0_1) TH22
    I6 (Rack m_1 \~Out_1) TH22
    I22 (L1_1 outAck n1_1) TH22
    I42 (\~Out_3 Out_3) inv_1x
    I41 (\~Out_2 Out_2) inv_1x
    I39 (\~Out_0 Out_0) inv_1x
    I40 (\~Out_1 Out_1) inv_1x
ends WCHB_Read
// End of subcircuit definition.

// Library name: 16nm
// Cell name: TH44~
// View name: schematic
// Inherited view list: spectre spice verilog behavioral functional hdl
//system verilogNetlist schematic cmos.sch cmos_sch veriloga ahdl
subckt _sub49 A B C D Y
    M19 (net13 A 0 0) nfet w=80n l=16n nfin=1 m=1 degradation=no
    M18 (net13 B 0 0) nfet w=80n l=16n nfin=1 m=1 degradation=no
    M17 (net13 C 0 0) nfet w=80n l=16n nfin=1 m=1 degradation=no
    M16 (net13 D 0 0) nfet w=80n l=16n nfin=1 m=1 degradation=no
    M15 (net011 net19 0 0) nfet w=40n l=16n nfin=1 m=1 degradation=no
    M14 (net42 A 0 0) nfet w=160n l=16n nfin=1 m=1 degradation=no
    M13 (net43 B net42 0) nfet w=160n l=16n nfin=1 m=1 degradation=no
    M12 (net44 C net43 0) nfet w=160n l=16n nfin=1 m=1 degradation=no
    M11 (net19 D net44 0) nfet w=160n l=16n nfin=1 m=1 degradation=no
    M10 (net19 net011 net13 0) nfet w=80n l=16n nfin=1 m=1 \
        degradation=no
    I6 (net011 Y) inv_1x
    M9 (net011 net19 vdd! vdd!) pfet w=80n l=16n nfin=1 m=1 \
        degradation=no
    M8 (net19 net011 net15 vdd!) pfet w=160n l=16n nfin=1 m=1 \
        degradation=no
    M7 (net15 D vdd! vdd!) pfet w=160n l=16n nfin=1 m=1 degradation=no
    M6 (net15 C vdd! vdd!) pfet w=160n l=16n nfin=1 m=1 degradation=no
    M5 (net15 B vdd! vdd!) pfet w=160n l=16n nfin=1 m=1 degradation=no
    M4 (net15 A vdd! vdd!) pfet w=160n l=16n nfin=1 m=1 degradation=no
    M3 (net19 D net45 vdd!) pfet w=320n l=16n nfin=1 m=1 degradation=no
    M2 (net45 C net46 vdd!) pfet w=320n l=16n nfin=1 m=1 degradation=no
    M1 (net46 B net47 vdd!) pfet w=320n l=16n nfin=1 m=1 degradation=no
    M0 (net47 A vdd! vdd!) pfet w=320n l=16n nfin=1 m=1 degradation=no
ends _sub49
// End of subcircuit definition.

// Library name: 16nm
// Cell name: nor4_1x
// View name: schematic
// Inherited view list: spectre spice verilog behavioral functional hdl
//system verilogNetlist schematic cmos.sch cmos_sch veriloga ahdl
subckt nor4_1x A B C D Y
    M5 (net017 C net21 vdd!) pfet w=400n l=20n nfin=1 m=1 \
        degradation=no
    M4 (Y D net017 vdd!) pfet w=400n l=20n nfin=1 m=1 degradation=no
    M3 (net21 B net018 vdd!) pfet w=400n l=20n nfin=1 m=1 \
        degradation=no
    M2 (net018 A vdd! vdd!) pfet w=400n l=20n nfin=1 m=1 degradation=no
    M7 (Y D 0 0) nfet w=60n l=20n nfin=1 m=1 degradation=no
    M6 (Y C 0 0) nfet w=60n l=20n nfin=1 m=1 degradation=no
    M1 (Y A 0 0) nfet w=60n l=20n nfin=1 m=1 degradation=no
    M0 (Y B 0 0) nfet w=60n l=20n nfin=1 m=1 degradation=no
ends nor4_1x
// End of subcircuit definition.

// Library name: 16nm
// Cell name: or4_1x
// View name: schematic
// Inherited view list: spectre spice verilog behavioral functional hdl
//system verilogNetlist schematic cmos.sch cmos_sch veriloga ahdl
subckt or4_1x A B C D Y
    I0 (A B C D net11) nor4_1x
    I1 (net11 Y) inv_1x
ends or4_1x
// End of subcircuit definition.

// Library name: 16nm
// Cell name: WCHB_Write
// View name: schematic
// Inherited view list: spectre spice verilog behavioral functional hdl
//system verilogNetlist schematic cmos.sch cmos_sch veriloga ahdl
subckt WCHB_Write Lack In_3 In_2 In_1 In_0 Rack_1 Rack_0 Out1_1 Out1_0 \
        Out0_1 Out0_0
    I26 (b1_1 Rack_1 \~Out1_1) TH22
    I7 (b1_0 Rack_0 \~Out1_0) TH22
    I24 (b0_1 Rack_1 \~Out0_1) TH22
    I6 (b0_0 Rack_0 \~Out0_0) TH22
    I3 (In_3 nxa n_3) TH22
    I2 (In_2 nxa n_2) TH22
    I1 (In_1 nxa n_1) TH22
    I0 (In_0 nxa n_0) TH22
    I30 (\~Out1_1 Out1_1) inv_1x
    I29 (\~Out0_0 Out0_0) inv_1x
    I31 (\~Out0_1 Out0_1) inv_1x
    I28 (\~Out1_0 Out1_0) inv_1x
    I12 (n_0 n_1 n_2 n_3 Lack) or4_1x
    I19 (n_3 n_1 b1_0) nor_1x
    I22 (n_2 n_3 b1_1) nor_1x
    I21 (n_0 n_1 b0_1) nor_1x
    I20 (n_0 n_2 b0_0) nor_1x
    I27 (\~Out1_0 \~Out0_0 \~Out1_1 \~Out0_1 nxa) and4_1x
ends WCHB_Write
// End of subcircuit definition.

// Library name: 16nm
// Cell name: 6T_DATAb
// View name: schematic
// Inherited view list: spectre spice verilog behavioral functional hdl
//system verilogNetlist schematic cmos.sch cmos_sch veriloga ahdl
subckt _sub50 Ack B0_3 B0_2 B0_1 B0_0 B1_3 B1_2 B1_1 B1_0 Go W0_3 W0_2 \
        W0_1 W0_0 W1_3 W1_2 W1_1 W1_0 RW_1 RW_0 Reset ValAddr \
        Read_1of4_3 Read_1of4_2 Read_1of4_1 Read_1of4_0 Read_1of4_7 \
        Read_1of4_6 Read_1of4_5 Read_1of4_4 W1_1of4_3 W1_1of4_2 \
        W1_1of4_1 W1_1of4_0 W2_1of4_3 W2_1of4_2 W2_1of4_1 W2_1of4_0 \
        \~R1_3 \~R1_2 \~R1_1 \~R1_0 \~R0_3 \~R0_2 \~R0_1 \~R0_0 \
        AckThruTop AckThruBot WdataAck_1 WdataAck_0 RdataAck_1 \
        RdataAck_0
    IRPCHB_3 (R0q_3 R1q_3 Lack_3 R0_3 R1_3 RpAck_3) PCHBd
    IRPCHB_2 (R0q_2 R1q_2 Lack_2 R0_2 R1_2 RpAck_2) PCHBd