// Generated for: spectre
// Generated on: Apr 26 03:35:52 2015
// Design library name: 16nm_Tests
// Design cell name: 6T_BANK_Test
// Design view name: config
simulator lang=spectre
global 0 vdd! vcc!
