// Generated for: spectre
// Generated on: Apr 24 22:58:21 2015
// Design library name: 16nm_Tests
// Design cell name: 6T_DataPathSimple_Test
// Design view name: config
simulator lang=spectre
global 0 vdd! vcc!
parameters vdd=.850
include "/software/cadence/ncsu-FreePDK15/hspice_16nm_hp.include"
// BEGIN Flat Interface Elements
// Flattened IE at /net41<1> uses port path 99999
// Flattened IE at /net033<3> uses port path 99998
// Flattened IE at /net44<1> uses port path 99997
// Flattened IE at /net44<6> uses port path 99996
// Flattened IE at /net027<6> uses port path 99995
// Flattened IE at /net036<0> uses port path 99994
// Flattened IE at /net036<1> uses port path 99993
// Flattened IE at /net44<4> uses port path 99992
// Flattened IE at /net44<5> uses port path 99991
// Flattened IE at /net027<2> uses port path 99990
// Flattened IE at /net027<4> uses port path 99989
// Flattened IE at /net033<2> uses port path 99988
// Flattened IE at /net033<13> uses port path 99987
// Flattened IE at /net033<11> uses port path 99986
// Flattened IE at /net44<2> uses port path 99985
// Flattened IE at /net033<8> uses port path 99984
// Flattened IE at /net033<14> uses port path 99983
// Flattened IE at /net033<15> uses port path 99982
// Flattened IE at /net027<5> uses port path 99981
// Flattened IE at /net033<12> uses port path 99980
// Flattened IE at /net44<3> uses port path 99979
// Flattened IE at /net027<3> uses port path 99978
// Flattened IE at /net41<0> uses port path 99977
// Flattened IE at /net033<4> uses port path 99976
// Flattened IE at /net44<7> uses port path 99975
// Flattened IE at /net44<0> uses port path 99974
// Flattened IE at /net033<0> uses port path 99973
// Flattened IE at /net033<9> uses port path 99972
// Flattened IE at /net027<7> uses port path 99971
// Flattened IE at /net032<0> uses port path 99970
// Flattened IE at /net033<10> uses port path 99969
// Flattened IE at /net033<5> uses port path 99968
// Flattened IE at /net033<6> uses port path 99967
// Flattened IE at /net027<0> uses port path 99966
// Flattened IE at /net027<1> uses port path 99965
// Flattened IE at /net018 uses port path 99964
// Flattened IE at /net032<1> uses port path 99963
// Flattened IE at /net033<1> uses port path 99962
// Flattened IE at /net033<7> uses port path 99961
// Flattened IE at /net033<16> uses port path 99960
// END Flat Interface Elements

// Library name: 16nm
// Cell name: 6T
// View name: schematic
// Inherited view list: spectre spice verilog behavioral functional hdl
//system verilogNetlist schematic cmos.sch cmos_sch veriloga ahdl
subckt _sub0 A B0 B1
    M5 (Q0 Q1 0 0) nfet w=60n l=20n nfin=1 m=1 degradation=no
    M4 (Q1 Q0 0 0) nfet w=60n l=20n nfin=1 m=1 degradation=no
    M1 (Q1 A B1 0) nfet w=120n l=20n nfin=2 m=1 degradation=no
    M0 (Q0 A B0 0) nfet w=120n l=20n nfin=2 m=1 degradation=no
    M3 (Q0 Q1 vdd! vdd!) pfet w=100n l=20n nfin=1 m=1 degradation=no
    M2 (Q1 Q0 vdd! vdd!) pfet w=100n l=20n nfin=1 m=1 degradation=no
ends _sub0
// End of subcircuit definition.

// Library name: 16nm
// Cell name: 6T_4x
// View name: schematic
// Inherited view list: spectre spice verilog behavioral functional hdl
//system verilogNetlist schematic cmos.sch cmos_sch veriloga ahdl
subckt _sub1 A_3 A_2 A_1 A_0 B0 B1
    I3 (A_0 B0 B1) _sub0
    I2 (A_1 B0 B1) _sub0
    I1 (A_2 B0 B1) _sub0
    I0 (A_3 B0 B1) _sub0
ends _sub1
// End of subcircuit definition.

// Library name: 16nm
// Cell name: 6T_32x
// View name: schematic
// Inherited view list: spectre spice verilog behavioral functional hdl
//system verilogNetlist schematic cmos.sch cmos_sch veriloga ahdl
subckt _sub2 B0 B1 A_31 A_30 A_29 A_28 A_27 A_26 A_25 A_24 A_23 A_22 A_21 \
        A_20 A_19 A_18 A_17 A_16 A_15 A_14 A_13 A_12 A_11 A_10 A_9 A_8 A_7 \
        A_6 A_5 A_4 A_3 A_2 A_1 A_0
    I7 (A_3 A_2 A_1 A_0 B0 B1) _sub1
    I6 (A_7 A_6 A_5 A_4 B0 B1) _sub1
    I5 (A_11 A_10 A_9 A_8 B0 B1) _sub1
    I4 (A_15 A_14 A_13 A_12 B0 B1) _sub1
    I3 (A_19 A_18 A_17 A_16 B0 B1) _sub1
    I2 (A_23 A_22 A_21 A_20 B0 B1) _sub1
    I1 (A_27 A_26 A_25 A_24 B0 B1) _sub1
    I0 (A_31 A_30 A_29 A_28 B0 B1) _sub1
ends _sub2
// End of subcircuit definition.

// Library name: 16nm
// Cell name: 6T_32x_CTRL
// View name: schematic
// Inherited view list: spectre spice verilog behavioral functional hdl
//system verilogNetlist schematic cmos.sch cmos_sch veriloga ahdl
subckt _sub3 B0 B1 S W0 W1
    M10 (B1 B0 net22 vdd!) pfet w=100n l=20n nfin=1 m=1 degradation=no
    M9 (net22 W1 vdd! vdd!) pfet w=100n l=20n nfin=1 m=1 degradation=no
    M8 (B0 B1 net23 vdd!) pfet w=100n l=20n nfin=1 m=1 degradation=no
    M7 (net23 W0 vdd! vdd!) pfet w=100n l=20n nfin=1 m=1 degradation=no
    M2 (B1 S vdd! vdd!) pfet w=100n l=20n nfin=1 m=1 degradation=no
    M0 (B0 S vdd! vdd!) pfet w=100n l=20n nfin=1 m=1 degradation=no
    M6 (B1 W1 net24 0) nfet w=60n l=20n nfin=1 m=1 degradation=no
    M5 (net24 S 0 0) nfet w=60n l=20n nfin=1 m=1 degradation=no
    M4 (net25 S 0 0) nfet w=60n l=20n nfin=1 m=1 degradation=no
    M3 (B0 W0 net25 0) nfet w=60n l=20n nfin=1 m=1 degradation=no
ends _sub3
// End of subcircuit definition.

// Library name: 16nm
// Cell name: nand4_1x
// View name: schematic
// Inherited view list: spectre spice verilog behavioral functional hdl
//system verilogNetlist schematic cmos.sch cmos_sch veriloga ahdl
subckt nand4_1x A B C D Y
    M5 (Y D vdd! vdd!) pfet w=100n l=20n nfin=1 m=1 degradation=no
    M4 (Y C vdd! vdd!) pfet w=100n l=20n nfin=1 m=1 degradation=no
    M1 (Y B vdd! vdd!) pfet w=100n l=20n nfin=1 m=1 degradation=no
    M0 (Y A vdd! vdd!) pfet w=100n l=20n nfin=1 m=1 degradation=no
    M7 (net23 D 0 0) nfet w=240n l=20n nfin=1 m=1 degradation=no
    M6 (net25 C net23 0) nfet w=240n l=20n nfin=1 m=1 degradation=no
    M3 (net24 B net25 0) nfet w=240n l=20n nfin=1 m=1 degradation=no
    M2 (Y A net24 0) nfet w=240n l=20n nfin=1 m=1 degradation=no
ends nand4_1x
// End of subcircuit definition.

// Library name: 16nm
// Cell name: 6T_32x4
// View name: schematic
// Inherited view list: spectre spice verilog behavioral functional hdl
//system verilogNetlist schematic cmos.sch cmos_sch veriloga ahdl
subckt _sub4 A_31 A_30 A_29 A_28 A_27 A_26 A_25 A_24 A_23 A_22 A_21 A_20 \
        A_19 A_18 A_17 A_16 A_15 A_14 A_13 A_12 A_11 A_10 A_9 A_8 A_7 A_6 \
        A_5 A_4 A_3 A_2 A_1 A_0 B0 B1 S_3 S_2 S_1 S_0 W0 W1 SM1 SM0
    I3 (B0P4 B1P4 A_31 A_30 A_29 A_28 A_27 A_26 A_25 A_24 A_23 A_22 A_21 \
        A_20 A_19 A_18 A_17 A_16 A_15 A_14 A_13 A_12 A_11 A_10 A_9 A_8 A_7 \
        A_6 A_5 A_4 A_3 A_2 A_1 A_0) _sub2
    I1 (B0P2 B1P2 A_31 A_30 A_29 A_28 A_27 A_26 A_25 A_24 A_23 A_22 A_21 \
        A_20 A_19 A_18 A_17 A_16 A_15 A_14 A_13 A_12 A_11 A_10 A_9 A_8 A_7 \
        A_6 A_5 A_4 A_3 A_2 A_1 A_0) _sub2
    I2 (B0P3 B1P3 A_31 A_30 A_29 A_28 A_27 A_26 A_25 A_24 A_23 A_22 A_21 \
        A_20 A_19 A_18 A_17 A_16 A_15 A_14 A_13 A_12 A_11 A_10 A_9 A_8 A_7 \
        A_6 A_5 A_4 A_3 A_2 A_1 A_0) _sub2
    I0 (B0P1 B1P1 A_31 A_30 A_29 A_28 A_27 A_26 A_25 A_24 A_23 A_22 A_21 \
        A_20 A_19 A_18 A_17 A_16 A_15 A_14 A_13 A_12 A_11 A_10 A_9 A_8 A_7 \
        A_6 A_5 A_4 A_3 A_2 A_1 A_0) _sub2
    M0 (B0P1 B0 net67 0) nfet w=60n l=20n nfin=1 m=1 degradation=no
    M1 (net67 S_0 0 0) nfet w=60n l=20n nfin=1 m=1 degradation=no
    M2 (net66 S_0 0 0) nfet w=60n l=20n nfin=1 m=1 degradation=no
    M8 (B1P2 B1 net65 0) nfet w=60n l=20n nfin=1 m=1 degradation=no
    M9 (net65 S_1 0 0) nfet w=60n l=20n nfin=1 m=1 degradation=no
    M10 (net64 S_1 0 0) nfet w=60n l=20n nfin=1 m=1 degradation=no
    M11 (B0P2 B0 net64 0) nfet w=60n l=20n nfin=1 m=1 degradation=no
    M12 (B0P3 B0 net63 0) nfet w=60n l=20n nfin=1 m=1 degradation=no
    M13 (net63 S_2 0 0) nfet w=60n l=20n nfin=1 m=1 degradation=no
    M14 (net62 S_2 0 0) nfet w=60n l=20n nfin=1 m=1 degradation=no
    M15 (B1P3 B1 net62 0) nfet w=60n l=20n nfin=1 m=1 degradation=no
    M16 (B1P4 B1 net61 0) nfet w=60n l=20n nfin=1 m=1 degradation=no
    M17 (net61 S_3 0 0) nfet w=60n l=20n nfin=1 m=1 degradation=no
    M18 (net60 S_3 0 0) nfet w=60n l=20n nfin=1 m=1 degradation=no
    M19 (B0P4 B0 net60 0) nfet w=60n l=20n nfin=1 m=1 degradation=no
    M3 (B1P1 B1 net66 0) nfet w=60n l=20n nfin=1 m=1 degradation=no
    I4 (B0P1 B1P1 S_0 W0 W1) _sub3
    I5 (B0P2 B1P2 S_1 W0 W1) _sub3
    I6 (B0P3 B1P3 S_2 W0 W1) _sub3
    I7 (B0P4 B1P4 S_3 W0 W1) _sub3
    I11 (B1P1 B1P2 B1P3 B1P4 SM1) nand4_1x
    I10 (B0P1 B0P2 B0P3 B0P4 SM0) nand4_1x
    C7 (B1P4 0) capacitor c=1.2822f m=1
    C6 (B1P2 0) capacitor c=1.2822f m=1
    C5 (B1P3 0) capacitor c=1.2822f m=1
    C4 (B0P4 0) capacitor c=1.2822f m=1
    C3 (B0P3 0) capacitor c=1.2822f m=1
    C2 (B0P2 0) capacitor c=1.2822f m=1
    C1 (B1P1 0) capacitor c=1.2822f m=1
    C0 (B0P1 0) capacitor c=1.2822f m=1
    M5 (B1P1 S_0 vdd! vdd!) pfet w=100n l=20n nfin=1 m=1 degradation=no
    M4 (B0P1 S_0 vdd! vdd!) pfet w=100n l=20n nfin=1 m=1 degradation=no
    M6 (B1P2 S_1 vdd! vdd!) pfet w=100n l=20n nfin=1 m=1 degradation=no
    M7 (B0P2 S_1 vdd! vdd!) pfet w=100n l=20n nfin=1 m=1 degradation=no
    M21 (B1P3 S_2 vdd! vdd!) pfet w=100n l=20n nfin=1 m=1 degradation=no
    M20 (B0P3 S_2 vdd! vdd!) pfet w=100n l=20n nfin=1 m=1 degradation=no
    M23 (B0P4 S_3 vdd! vdd!) pfet w=100n l=20n nfin=1 m=1 degradation=no
    M22 (B1P4 S_3 vdd! vdd!) pfet w=100n l=20n nfin=1 m=1 degradation=no
ends _sub4
// End of subcircuit definition.

// Library name: 16nm
// Cell name: 6T_SetRead
// View name: schematic
// Inherited view list: spectre spice verilog behavioral functional hdl
//system verilogNetlist schematic cmos.sch cmos_sch veriloga ahdl
subckt _sub5 \~R0 \~R1 Go SM0_0 SM0_1 SM1_0 SM1_1
    M5 (\~R0 SM0_0 net18 0) nfet w=60n l=20n nfin=1 m=1 degradation=no
    M3 (\~R0 SM0_1 net18 0) nfet w=60n l=20n nfin=1 m=1 degradation=no
    M2 (net18 Go 0 0) nfet w=120n l=20n nfin=2 m=1 degradation=no
    M1 (\~R1 SM1_1 net18 0) nfet w=60n l=20n nfin=1 m=1 degradation=no
    M0 (\~R1 SM1_0 net18 0) nfet w=60n l=20n nfin=1 m=1 degradation=no
ends _sub5
// End of subcircuit definition.

// Library name: 16nm
// Cell name: 6T_CHUNK
// View name: schematic
// Inherited view list: spectre spice verilog behavioral functional hdl
//system verilogNetlist schematic cmos.sch cmos_sch veriloga ahdl
subckt _sub6 \~R0_3 \~R0_2 \~R0_1 \~R0_0 \~R1_3 \~R1_2 \~R1_1 \~R1_0 A_63 \
        A_62 A_61 A_60 A_59 A_58 A_57 A_56 A_55 A_54 A_53 A_52 A_51 A_50 \
        A_49 A_48 A_47 A_46 A_45 A_44 A_43 A_42 A_41 A_40 A_39 A_38 A_37 \
        A_36 A_35 A_34 A_33 A_32 A_31 A_30 A_29 A_28 A_27 A_26 A_25 A_24 \
        A_23 A_22 A_21 A_20 A_19 A_18 A_17 A_16 A_15 A_14 A_13 A_12 A_11 \
        A_10 A_9 A_8 A_7 A_6 A_5 A_4 A_3 A_2 A_1 A_0 B0_3 B0_2 B0_1 B0_0 \
        B1_3 B1_2 B1_1 B1_0 S_7 S_6 S_5 S_4 S_3 S_2 S_1 S_0 W0_3 W0_2 W0_1 \
        W0_0 W1_3 W1_2 W1_1 W1_0 Go
    I11 (A_63 A_62 A_61 A_60 A_59 A_58 A_57 A_56 A_55 A_54 A_53 A_52 A_51 \
        A_50 A_49 A_48 A_47 A_46 A_45 A_44 A_43 A_42 A_41 A_40 A_39 A_38 \
        A_37 A_36 A_35 A_34 A_33 A_32 B0_3 B1_3 S_7 S_6 S_5 S_4 W0_3 W1_3 \
        SM1_1_bit3 SM0_1_bit3) _sub4
    I10 (A_63 A_62 A_61 A_60 A_59 A_58 A_57 A_56 A_55 A_54 A_53 A_52 A_51 \
        A_50 A_49 A_48 A_47 A_46 A_45 A_44 A_43 A_42 A_41 A_40 A_39 A_38 \
        A_37 A_36 A_35 A_34 A_33 A_32 B0_2 B1_2 S_7 S_6 S_5 S_4 W0_2 W1_2 \
        SM1_1_bit2 SM0_1_bit2) _sub4
    I9 (A_63 A_62 A_61 A_60 A_59 A_58 A_57 A_56 A_55 A_54 A_53 A_52 A_51 \
        A_50 A_49 A_48 A_47 A_46 A_45 A_44 A_43 A_42 A_41 A_40 A_39 A_38 \
        A_37 A_36 A_35 A_34 A_33 A_32 B0_1 B1_1 S_7 S_6 S_5 S_4 W0_1 W1_1 \
        SM1_1_bit1 SM0_1_bit1) _sub4
    I8 (A_63 A_62 A_61 A_60 A_59 A_58 A_57 A_56 A_55 A_54 A_53 A_52 A_51 \
        A_50 A_49 A_48 A_47 A_46 A_45 A_44 A_43 A_42 A_41 A_40 A_39 A_38 \
        A_37 A_36 A_35 A_34 A_33 A_32 B0_0 B1_0 S_7 S_6 S_5 S_4 W0_0 W1_0 \
        SM1_1_bit0 SM0_1_bit0) _sub4
    I3 (A_31 A_30 A_29 A_28 A_27 A_26 A_25 A_24 A_23 A_22 A_21 A_20 A_19 \
        A_18 A_17 A_16 A_15 A_14 A_13 A_12 A_11 A_10 A_9 A_8 A_7 A_6 A_5 \
        A_4 A_3 A_2 A_1 A_0 B0_3 B1_3 S_3 S_2 S_1 S_0 W0_3 W1_3 SM1_0_bit3 \
        SM0_0_bit3) _sub4
    I2 (A_31 A_30 A_29 A_28 A_27 A_26 A_25 A_24 A_23 A_22 A_21 A_20 A_19 \
        A_18 A_17 A_16 A_15 A_14 A_13 A_12 A_11 A_10 A_9 A_8 A_7 A_6 A_5 \
        A_4 A_3 A_2 A_1 A_0 B0_2 B1_2 S_3 S_2 S_1 S_0 W0_2 W1_2 SM1_0_bit2 \
        SM0_0_bit2) _sub4
    I1 (A_31 A_30 A_29 A_28 A_27 A_26 A_25 A_24 A_23 A_22 A_21 A_20 A_19 \
        A_18 A_17 A_16 A_15 A_14 A_13 A_12 A_11 A_10 A_9 A_8 A_7 A_6 A_5 \
        A_4 A_3 A_2 A_1 A_0 B0_1 B1_1 S_3 S_2 S_1 S_0 W0_1 W1_1 SM1_0_bit1 \
        SM0_0_bit1) _sub4
    I0 (A_31 A_30 A_29 A_28 A_27 A_26 A_25 A_24 A_23 A_22 A_21 A_20 A_19 \
        A_18 A_17 A_16 A_15 A_14 A_13 A_12 A_11 A_10 A_9 A_8 A_7 A_6 A_5 \
        A_4 A_3 A_2 A_1 A_0 B0_0 B1_0 S_3 S_2 S_1 S_0 W0_0 W1_0 SM1_0_bit0 \
        SM0_0_bit0) _sub4
    I7 (\~R0_3 \~R1_3 Go SM0_0_bit3 SM0_1_bit3 SM1_0_bit3 SM1_1_bit3) \
        _sub5
    I6 (\~R0_2 \~R1_2 Go SM0_0_bit2 SM0_1_bit2 SM1_0_bit2 SM1_1_bit2) \
        _sub5
    I5 (\~R0_1 \~R1_1 Go SM0_0_bit1 SM0_1_bit1 SM1_0_bit1 SM1_1_bit1) \
        _sub5
    I4 (\~R0_0 \~R1_0 Go SM0_0_bit0 SM0_1_bit0 SM1_0_bit0 SM1_1_bit0) \
        _sub5
ends _sub6
// End of subcircuit definition.

// Library name: 16nm
// Cell name: inv_1x
// View name: schematic
// Inherited view list: spectre spice verilog behavioral functional hdl
//system verilogNetlist schematic cmos.sch cmos_sch veriloga ahdl
subckt inv_1x A Y
    M0 (Y A 0 0) nfet w=60n l=20n nfin=1 m=1 degradation=no
    M1 (Y A vdd! vdd!) pfet w=100n l=20n nfin=1 m=1 degradation=no
ends inv_1x
// End of subcircuit definition.

// Library name: 16nm
// Cell name: and4_1x
// View name: schematic
// Inherited view list: spectre spice verilog behavioral functional hdl
//system verilogNetlist schematic cmos.sch cmos_sch veriloga ahdl
subckt and4_1x A B C D Y
    I15 (A B C D net1) nand4_1x
    I16 (net1 Y) inv_1x
ends and4_1x
// End of subcircuit definition.

// Library name: 16nm
// Cell name: Demux_2e1of4
// View name: schematic
// Inherited view list: spectre spice verilog behavioral functional hdl
//system verilogNetlist schematic cmos.sch cmos_sch veriloga ahdl
subckt Demux_2e1of4 A_15 A_14 A_13 A_12 A_11 A_10 A_9 A_8 A_7 A_6 A_5 A_4 \
        A_3 A_2 A_1 A_0 _1of4_1_3 _1of4_1_2 _1of4_1_1 _1of4_1_0 _1of4_2_3 \
        _1of4_2_2 _1of4_2_1 _1of4_2_0 En EnOut
    I15 (_1of4_1_3 _1of4_2_3 EnOut En A_15) and4_1x
    I14 (_1of4_1_2 _1of4_2_3 EnOut En A_14) and4_1x
    I13 (_1of4_1_1 _1of4_2_3 EnOut En A_13) and4_1x
    I12 (_1of4_1_0 _1of4_2_3 EnOut En A_12) and4_1x
    I11 (_1of4_1_3 _1of4_2_2 EnOut En A_11) and4_1x
    I10 (_1of4_1_2 _1of4_2_2 EnOut En A_10) and4_1x
    I9 (_1of4_1_1 _1of4_2_2 EnOut En A_9) and4_1x
    I8 (_1of4_1_0 _1of4_2_2 EnOut En A_8) and4_1x
    I7 (_1of4_1_3 _1of4_2_1 EnOut En A_7) and4_1x
    I6 (_1of4_1_2 _1of4_2_1 EnOut En A_6) and4_1x
    I5 (_1of4_1_1 _1of4_2_1 EnOut En A_5) and4_1x
    I4 (_1of4_1_0 _1of4_2_1 EnOut En A_4) and4_1x
    I3 (_1of4_1_3 _1of4_2_0 EnOut En A_3) and4_1x
    I2 (_1of4_1_2 _1of4_2_0 EnOut En A_2) and4_1x
    I1 (_1of4_1_1 _1of4_2_0 EnOut En A_1) and4_1x
    I0 (_1of4_1_0 _1of4_2_0 EnOut En A_0) and4_1x
ends Demux_2e1of4
// End of subcircuit definition.

// Library name: 16nm
// Cell name: nor4_1x
// View name: schematic
// Inherited view list: spectre spice verilog behavioral functional hdl
//system verilogNetlist schematic cmos.sch cmos_sch veriloga ahdl
subckt nor4_1x A B C D Y
    M5 (net017 C net21 vdd!) pfet w=400n l=20n nfin=1 m=1 degradation=no
    M4 (Y D net017 vdd!) pfet w=400n l=20n nfin=1 m=1 degradation=no
    M3 (net21 B net018 vdd!) pfet w=400n l=20n nfin=1 m=1 degradation=no
    M2 (net018 A vdd! vdd!) pfet w=400n l=20n nfin=1 m=1 degradation=no
    M7 (Y D 0 0) nfet w=60n l=20n nfin=1 m=1 degradation=no
    M6 (Y C 0 0) nfet w=60n l=20n nfin=1 m=1 degradation=no
    M1 (Y A 0 0) nfet w=60n l=20n nfin=1 m=1 degradation=no
    M0 (Y B 0 0) nfet w=60n l=20n nfin=1 m=1 degradation=no
ends nor4_1x
// End of subcircuit definition.

// Library name: 16nm
// Cell name: or16_1x
// View name: schematic
// Inherited view list: spectre spice verilog behavioral functional hdl
//system verilogNetlist schematic cmos.sch cmos_sch veriloga ahdl
subckt or16_1x Y X_15 X_14 X_13 X_12 X_11 X_10 X_9 X_8 X_7 X_6 X_5 X_4 X_3 \
        X_2 X_1 X_0
    I2 (nX30 nX74 nX118 nX1512 Y) nand4_1x
    I0 (X_0 X_1 X_2 X_3 nX30) nor4_1x
    I1 (X_4 X_5 X_6 X_7 nX74) nor4_1x
    I3 (X_8 X_9 X_10 X_11 nX118) nor4_1x
    I4 (X_12 X_13 X_14 X_15 nX1512) nor4_1x
ends or16_1x
// End of subcircuit definition.

// Library name: 16nm
// Cell name: or4_1x
// View name: schematic
// Inherited view list: spectre spice verilog behavioral functional hdl
//system verilogNetlist schematic cmos.sch cmos_sch veriloga ahdl
subckt or4_1x A B C D Y
    I0 (A B C D net11) nor4_1x
    I1 (net11 Y) inv_1x
ends or4_1x
// End of subcircuit definition.

// Library name: 16nm
// Cell name: Demux_3e1of4
// View name: schematic
// Inherited view list: spectre spice verilog behavioral functional hdl
//system verilogNetlist schematic cmos.sch cmos_sch veriloga ahdl
subckt Demux_3e1of4 A_63 A_62 A_61 A_60 A_59 A_58 A_57 A_56 A_55 A_54 A_53 \
        A_52 A_51 A_50 A_49 A_48 A_47 A_46 A_45 A_44 A_43 A_42 A_41 A_40 \
        A_39 A_38 A_37 A_36 A_35 A_34 A_33 A_32 A_31 A_30 A_29 A_28 A_27 \
        A_26 A_25 A_24 A_23 A_22 A_21 A_20 A_19 A_18 A_17 A_16 A_15 A_14 \
        A_13 A_12 A_11 A_10 A_9 A_8 A_7 A_6 A_5 A_4 A_3 A_2 A_1 A_0 \
        _1of4_1_3 _1of4_1_2 _1of4_1_1 _1of4_1_0 _1of4_2_3 _1of4_2_2 \
        _1of4_2_1 _1of4_2_0 _1of4_3_3 _1of4_3_2 _1of4_3_1 _1of4_3_0 En \
        AddrValid
    I3 (A_63 A_62 A_61 A_60 A_59 A_58 A_57 A_56 A_55 A_54 A_53 A_52 A_51 \
        A_50 A_49 A_48 _1of4_1_3 _1of4_1_2 _1of4_1_1 _1of4_1_0 _1of4_2_3 \
        _1of4_2_2 _1of4_2_1 _1of4_2_0 En _1of4_3_3) Demux_2e1of4
    I2 (A_47 A_46 A_45 A_44 A_43 A_42 A_41 A_40 A_39 A_38 A_37 A_36 A_35 \
        A_34 A_33 A_32 _1of4_1_3 _1of4_1_2 _1of4_1_1 _1of4_1_0 _1of4_2_3 \
        _1of4_2_2 _1of4_2_1 _1of4_2_0 En _1of4_3_2) Demux_2e1of4
    I1 (A_31 A_30 A_29 A_28 A_27 A_26 A_25 A_24 A_23 A_22 A_21 A_20 A_19 \
        A_18 A_17 A_16 _1of4_1_3 _1of4_1_2 _1of4_1_1 _1of4_1_0 _1of4_2_3 \
        _1of4_2_2 _1of4_2_1 _1of4_2_0 En _1of4_3_1) Demux_2e1of4
    I0 (A_15 A_14 A_13 A_12 A_11 A_10 A_9 A_8 A_7 A_6 A_5 A_4 A_3 A_2 A_1 \
        A_0 _1of4_1_3 _1of4_1_2 _1of4_1_1 _1of4_1_0 _1of4_2_3 _1of4_2_2 \
        _1of4_2_1 _1of4_2_0 En _1of4_3_0) Demux_2e1of4
    I8 (net22 A_63 A_62 A_61 A_60 A_59 A_58 A_57 A_56 A_55 A_54 A_53 A_52 \
        A_51 A_50 A_49 A_48) or16_1x
    I7 (net23 A_47 A_46 A_45 A_44 A_43 A_42 A_41 A_40 A_39 A_38 A_37 A_36 \
        A_35 A_34 A_33 A_32) or16_1x
    I6 (net24 A_31 A_30 A_29 A_28 A_27 A_26 A_25 A_24 A_23 A_22 A_21 A_20 \
        A_19 A_18 A_17 A_16) or16_1x
    I17 (net25 A_15 A_14 A_13 A_12 A_11 A_10 A_9 A_8 A_7 A_6 A_5 A_4 A_3 \
        A_2 A_1 A_0) or16_1x
    I11 (net25 net24 net23 net22 AddrValid) or4_1x
ends Demux_3e1of4
// End of subcircuit definition.

// Library name: 16nm
// Cell name: nor_1x
// View name: schematic
// Inherited view list: spectre spice verilog behavioral functional hdl
//system verilogNetlist schematic cmos.sch cmos_sch veriloga ahdl
subckt nor_1x A B Y
    M3 (Y B or_pd_ps vdd!) pfet w=200n l=20n nfin=1 m=1 degradation=no
    M2 (or_pd_ps A vdd! vdd!) pfet w=200n l=20n nfin=1 m=1 degradation=no
    M1 (Y B 0 0) nfet w=60n l=20n nfin=1 m=1 degradation=no
    M0 (Y A 0 0) nfet w=60n l=20n nfin=1 m=1 degradation=no
ends nor_1x
// End of subcircuit definition.

// Library name: 16nm
// Cell name: nor3_1x
// View name: schematic
// Inherited view list: spectre spice verilog behavioral functional hdl
//system verilogNetlist schematic cmos.sch cmos_sch veriloga ahdl
subckt nor3_1x A B C Y
    M5 (Y C net21 vdd!) pfet w=300n l=20n nfin=1 m=1 degradation=no
    M3 (net21 B net018 vdd!) pfet w=300n l=20n nfin=1 m=1 degradation=no
    M2 (net018 A vdd! vdd!) pfet w=300n l=20n nfin=1 m=1 degradation=no
    M6 (Y C 0 0) nfet w=60n l=20n nfin=1 m=1 degradation=no
    M1 (Y A 0 0) nfet w=60n l=20n nfin=1 m=1 degradation=no
    M0 (Y B 0 0) nfet w=60n l=20n nfin=1 m=1 degradation=no
ends nor3_1x
// End of subcircuit definition.

// Library name: 16nm
// Cell name: 6T_DEMUX_
// View name: schematic
// Inherited view list: spectre spice verilog behavioral functional hdl
//system verilogNetlist schematic cmos.sch cmos_sch veriloga ahdl
subckt _sub7 A_63 A_62 A_61 A_60 A_59 A_58 A_57 A_56 A_55 A_54 A_53 A_52 \
        A_51 A_50 A_49 A_48 A_47 A_46 A_45 A_44 A_43 A_42 A_41 A_40 A_39 \
        A_38 A_37 A_36 A_35 A_34 A_33 A_32 A_31 A_30 A_29 A_28 A_27 A_26 \
        A_25 A_24 A_23 A_22 A_21 A_20 A_19 A_18 A_17 A_16 A_15 A_14 A_13 \
        A_12 A_11 A_10 A_9 A_8 A_7 A_6 A_5 A_4 A_3 A_2 A_1 A_0 S_7 S_6 S_5 \
        S_4 S_3 S_2 S_1 S_0 _1of4_1_3 _1of4_1_2 _1of4_1_1 _1of4_1_0 \
        _1of4_2_3 _1of4_2_2 _1of4_2_1 _1of4_2_0 _1of4_3_3 _1of4_3_2 \
        _1of4_3_1 _1of4_3_0 _1of4_4_3 _1of4_4_2 _1of4_4_1 _1of4_4_0 En Ack
    I0 (A_63 A_62 A_61 A_60 A_59 A_58 A_57 A_56 A_55 A_54 A_53 A_52 A_51 \
        A_50 A_49 A_48 A_47 A_46 A_45 A_44 A_43 A_42 A_41 A_40 A_39 A_38 \
        A_37 A_36 A_35 A_34 A_33 A_32 A_31 A_30 A_29 A_28 A_27 A_26 A_25 \
        A_24 A_23 A_22 A_21 A_20 A_19 A_18 A_17 A_16 A_15 A_14 A_13 A_12 \
        A_11 A_10 A_9 A_8 A_7 A_6 A_5 A_4 A_3 A_2 A_1 A_0 _1of4_1_3 \
        _1of4_1_2 _1of4_1_1 _1of4_1_0 _1of4_2_3 _1of4_2_2 _1of4_2_1 \
        _1of4_2_0 _1of4_3_3 _1of4_3_2 _1of4_3_1 _1of4_3_0 En Ack) \
        Demux_3e1of4
    I10_3 (_1of4_4_3 net020_0) inv_1x
    I10_2 (_1of4_4_2 net020_1) inv_1x
    I10_1 (_1of4_4_1 net020_2) inv_1x
    I10_0 (_1of4_4_0 net020_3) inv_1x
    I9 (En net015) inv_1x
    I6 (En net016) inv_1x
    I4 (_1of4_3_0 _1of4_3_1 net23) nor_1x
    I5 (_1of4_3_2 _1of4_3_3 net22) nor_1x
    I1_3 (net020_0 net23 net016 S_3) nor3_1x
    I1_2 (net020_1 net23 net016 S_2) nor3_1x
    I1_1 (net020_2 net23 net016 S_1) nor3_1x
    I1_0 (net020_3 net23 net016 S_0) nor3_1x
    I2_3 (net020_0 net22 net015 S_7) nor3_1x
    I2_2 (net020_1 net22 net015 S_6) nor3_1x
    I2_1 (net020_2 net22 net015 S_5) nor3_1x
    I2_0 (net020_3 net22 net015 S_4) nor3_1x
ends _sub7
// End of subcircuit definition.

// Library name: 16nm
// Cell name: nand_1x
// View name: schematic
// Inherited view list: spectre spice verilog behavioral functional hdl
//system verilogNetlist schematic cmos.sch cmos_sch veriloga ahdl
subckt nand_1x A B Y
    M1 (Y B vdd! vdd!) pfet w=100n l=20n nfin=1 m=1 degradation=no
    M0 (Y A vdd! vdd!) pfet w=100n l=20n nfin=1 m=1 degradation=no
    M3 (net22 B 0 0) nfet w=120n l=20n nfin=1 m=1 degradation=no
    M2 (Y A net22 0) nfet w=120n l=20n nfin=1 m=1 degradation=no
ends nand_1x
// End of subcircuit definition.

// Library name: 16nm
// Cell name: or_1x
// View name: schematic
// Inherited view list: spectre spice verilog behavioral functional hdl
//system verilogNetlist schematic cmos.sch cmos_sch veriloga ahdl
subckt or_1x A B Y
    I6 (A B AnorB) nor_1x
    I7 (AnorB Y) inv_1x
ends or_1x
// End of subcircuit definition.

// Library name: 16nm
// Cell name: inv_weak_1x
// View name: schematic
// Inherited view list: spectre spice verilog behavioral functional hdl
//system verilogNetlist schematic cmos.sch cmos_sch veriloga ahdl
subckt inv_weak_1x A Y
    M2 (net13 vdd! 0 0) nfet w=60n l=20n nfin=1 ls=105n  m=1 \
        degradation=no
    M0 (Y A net13 0) nfet w=60n l=20n nfin=1 ls=105n  m=1 degradation=no
    M3 (net14 0 vdd! vdd!) pfet w=100n l=20n nfin=1 m=1 degradation=no
    M1 (Y A net14 vdd!) pfet w=100n l=20n nfin=1 m=1 degradation=no
ends inv_weak_1x
// End of subcircuit definition.

// Library name: 16nm
// Cell name: TH22
// View name: schematic
// Inherited view list: spectre spice verilog behavioral functional hdl
//system verilogNetlist schematic cmos.sch cmos_sch veriloga ahdl
subckt TH22 A B Y
    M5 (Y net5 0 0) nfet w=60n l=20n nfin=1 m=1 degradation=no
    M4 (net5 Y net9 0) nfet w=120n l=20n nfin=1 m=1 degradation=no
    M3 (net9 B 0 0) nfet w=120n l=20n nfin=1 m=1 degradation=no
    M2 (net9 A 0 0) nfet w=120n l=20n nfin=1 m=1 degradation=no
    M1 (net5 B net17 0) nfet w=120n l=20n nfin=1 m=1 degradation=no
    M0 (net17 A 0 0) nfet w=120n l=20n nfin=1 m=1 degradation=no
    M11 (Y net5 vdd! vdd!) pfet w=100n l=20n nfin=1 m=1 degradation=no
    M10 (net5 B net032 vdd!) pfet w=200n l=20n nfin=1 m=1 degradation=no
    M9 (net032 A vdd! vdd!) pfet w=200n l=20n nfin=1 m=1 degradation=no
    M8 (net037 B vdd! vdd!) pfet w=200n l=20n nfin=1 m=1 degradation=no
    M7 (net037 A vdd! vdd!) pfet w=200n l=20n nfin=1 m=1 degradation=no
    M6 (net5 Y net037 vdd!) pfet w=200n l=20n nfin=1 m=1 degradation=no
ends TH22
// End of subcircuit definition.

// Library name: 16nm
// Cell name: PCHBd
// View name: schematic
// Inherited view list: spectre spice verilog behavioral functional hdl
//system verilogNetlist schematic cmos.sch cmos_sch veriloga ahdl
subckt PCHBd R0i\+1 R1i\+1 Ai R0i R1i Ai\+1
    I32 (net019 R0i\+1) inv_1x
    I5 (net032 R1i\+1) inv_1x
    I35 (Ai net027) inv_1x
    M16 (net019 R0i net034 0) nfet w=60n l=20n nfin=1 m=1 degradation=no
    M3 (net032 R1i net033 0) nfet w=60n l=20n nfin=1 m=1 degradation=no
    M4 (net034 net022 0 0) nfet w=60n l=20n nfin=1 m=1 degradation=no
    M5 (net033 net022 0 0) nfet w=60n l=20n nfin=1 m=1 degradation=no
    M10 (net019 net022 vdd! vdd!) pfet w=200n l=20n nfin=1 m=1 \
        degradation=no
    M1 (net032 net022 vdd! vdd!) pfet w=200n l=20n nfin=1 m=1 \
        degradation=no
    I6 (net032 net019 net031) nand_1x
    I9 (R0i R1i net030) or_1x
    I2 (R0i\+1 net019) inv_weak_1x
    I33 (R1i\+1 net032) inv_weak_1x
    I12 (net031 net030 Ai) TH22
    I30 (net027 Ai\+1 net022) TH22
ends PCHBd
// End of subcircuit definition.

// Library name: 16nm
// Cell name: THaC
// View name: schematic
// Inherited view list: spectre spice verilog behavioral functional hdl
//system verilogNetlist schematic cmos.sch cmos_sch veriloga ahdl
subckt THaC A Y C\- B\+
    M8 (net11 A 0 A) nfet w=120n l=20n nfin=1 m=1 degradation=no
    M5 (net7 A net33 A) nfet w=120n l=20n nfin=1 m=1 degradation=no
    M6 (net7 Y net11 Y) nfet w=120n l=20n nfin=1 m=1 degradation=no
    M9 (net11 C\- 0 C\-) nfet w=120n l=20n nfin=1 m=1 degradation=no
    M7 (net33 \~B\+ 0 \~B\+) nfet w=120n l=20n nfin=1 m=1 degradation=no
    I2 (net7 Y) inv_1x
    I9 (B\+ \~B\+) inv_1x
    M4 (net7 Y net17 Y) pfet w=100n l=20n nfin=1 m=1 degradation=no
    M3 (net7 C\- net32 C\-) pfet w=100n l=20n nfin=1 m=1 degradation=no
    M0 (net32 A vdd! A) pfet w=100n l=20n nfin=1 m=1 degradation=no
    M2 (net17 \~B\+ vdd! \~B\+) pfet w=100n l=20n nfin=1 m=1 \
        degradation=no
    M1 (net17 A vdd! A) pfet w=100n l=20n nfin=1 m=1 degradation=no
ends THaC
// End of subcircuit definition.

// Library name: 16nm
// Cell name: PCHB_Write
// View name: schematic
// Inherited view list: spectre spice verilog behavioral functional hdl
//system verilogNetlist schematic cmos.sch cmos_sch veriloga ahdl
subckt PCHB_Write B0 B1 outAck R0i R1i W0 W1
    I34 (outAck net027) inv_1x
    I5 (net029 B1) inv_1x
    I4 (net18 B0) inv_1x
    I12 (inValid outAck outValid inAck) THaC
    M5 (net026 oE 0 0) nfet w=60n l=20n nfin=1 m=1 degradation=no
    M4 (net22 oE 0 0) nfet w=60n l=20n nfin=1 m=1 degradation=no
    M3 (net029 R1i net026 0) nfet w=60n l=20n nfin=1 m=1 degradation=no
    M2 (net18 R0i net22 0) nfet w=60n l=20n nfin=1 m=1 degradation=no
    M1 (net029 oE vdd! vdd!) pfet w=200n l=20n nfin=1 m=1 degradation=no
    M0 (net18 oE vdd! vdd!) pfet w=200n l=20n nfin=1 m=1 degradation=no
    I6 (net029 net18 outValid) nand_1x
    I9 (R0i R1i inValid) or_1x
    I2 (B0 net18) inv_weak_1x
    I3 (B1 net029) inv_weak_1x
    I11 (net027 inAck oE) TH22
    I31 (W1 W0 inAck) nor_1x
ends PCHB_Write
// End of subcircuit definition.

// Library name: 16nm
// Cell name: and_1x
// View name: schematic
// Inherited view list: spectre spice verilog behavioral functional hdl
//system verilogNetlist schematic cmos.sch cmos_sch veriloga ahdl
subckt and_1x A B Y
    I7 (A B ntYbar) nand_1x
    I6 (ntYbar Y) inv_1x
ends and_1x
// End of subcircuit definition.

// Library name: 16nm
// Cell name: WCHB_Read
// View name: schematic
// Inherited view list: spectre spice verilog behavioral functional hdl
//system verilogNetlist schematic cmos.sch cmos_sch veriloga ahdl
subckt WCHB_Read Lack_1 Lack_0 L0_1 L0_0 L1_1 L1_0 Rack Out_3 Out_2 Out_1 \
        Out_0
    I23 (n0_1 n1_1 Lack_1) nor_1x
    I12 (n0_0 n1_0 Lack_0) nor_1x
    I34 (net31 net27 net24 net20 outAck) and4_1x
    I29 (n0_0 n1_1 m_2) nand_1x
    I26 (n1_0 n1_1 m_3) nand_1x
    I25 (n1_0 n0_1 m_1) nand_1x
    I24 (n0_0 n0_1 m_0) nand_1x
    I28 (Rack m_2 net24) TH22
    I27 (Rack m_3 net20) TH22
    I0 (L0_0 outAck n0_0) TH22
    I7 (Rack m_0 net31) TH22
    I1 (L1_0 outAck n1_0) TH22
    I21 (L0_1 outAck n0_1) TH22
    I6 (Rack m_1 net27) TH22
    I22 (L1_1 outAck n1_1) TH22
    I42 (net20 Out_3) inv_1x
    I41 (net24 Out_2) inv_1x
    I39 (net31 Out_0) inv_1x
    I40 (net27 Out_1) inv_1x
ends WCHB_Read
// End of subcircuit definition.

// Library name: 16nm
// Cell name: TH44~
// View name: schematic
// Inherited view list: spectre spice verilog behavioral functional hdl
//system verilogNetlist schematic cmos.sch cmos_sch veriloga ahdl
subckt _sub8 A B C D Y
    M19 (net13 A 0 0) nfet w=80n l=16n nfin=1 m=1 degradation=no
    M18 (net13 B 0 0) nfet w=80n l=16n nfin=1 m=1 degradation=no
    M17 (net13 C 0 0) nfet w=80n l=16n nfin=1 m=1 degradation=no
    M16 (net13 D 0 0) nfet w=80n l=16n nfin=1 m=1 degradation=no
    M15 (net011 net19 0 0) nfet w=40n l=16n nfin=1 m=1 degradation=no
    M14 (net42 A 0 0) nfet w=160n l=16n nfin=1 m=1 degradation=no
    M13 (net43 B net42 0) nfet w=160n l=16n nfin=1 m=1 degradation=no