// Generated for: spectre
// Generated on: Apr 24 03:09:56 2015
// Design library name: 16nm_Tests
// Design cell name: 6T_DataPathSimple_Test
// Design view name: config
simulator lang=spectre
global 0 vcc! vdd!
