// Generated for: spectre
// Generated on: Mar  8 18:17:13 2015
// Design library name: 16nm_Tests
// Design cell name: 10T_TagMem_Test
// Design view name: config
simulator lang=spectre
global 0 vcc! vdd!
parameters vdd=0.9 vcc=0.9
include "/software/cadence/ncsu-FreePDK15/hspice_16nm_hp.include"
// BEGIN Flat Interface Elements
// Flattened IE at /~W0<31> uses port path 99999
// Flattened IE at /~W1<29> uses port path 99998
// Flattened IE at /~W0<7> uses port path 99997
// Flattened IE at /~R1<28> uses port path 99996
// Flattened IE at /~W1<28> uses port path 99995
// Flattened IE at /~R1<6> uses port path 99994
// Flattened IE at /~W_Addr<2> uses port path 99993
// Flattened IE at /~R1<27> uses port path 99992
// Flattened IE at /~R1<26> uses port path 99991
// Flattened IE at /~R0<5> uses port path 99990
// Flattened IE at /~W0<18> uses port path 99989
// Flattened IE at /~R1<31> uses port path 99988
// Flattened IE at /~R1<25> uses port path 99987
// Flattened IE at /~R1<24> uses port path 99986
// Flattened IE at /~R1<30> uses port path 99985
// Flattened IE at /~R1<23> uses port path 99984
// Flattened IE at /~R1<29> uses port path 99983
// Flattened IE at /~R1<21> uses port path 99982
// Flattened IE at /~W0<10> uses port path 99981
// Flattened IE at /~R0<31> uses port path 99980
// Flattened IE at /~R1<11> uses port path 99979
// Flattened IE at /~R0<30> uses port path 99978
// Flattened IE at /~R_Addr<1> uses port path 99977
// Flattened IE at /~R0<29> uses port path 99976
// Flattened IE at /~W0<9> uses port path 99975
// Flattened IE at /~W1<10> uses port path 99974
// Flattened IE at /~W1<11> uses port path 99973
// Flattened IE at /~W1<12> uses port path 99972
// Flattened IE at /~W_Addr<5> uses port path 99971
// Flattened IE at /~W1<13> uses port path 99970
// Flattened IE at /~R0<23> uses port path 99969
// Flattened IE at /~R1<20> uses port path 99968
// Flattened IE at /~GoW uses port path 99967
// Flattened IE at /~R0<12> uses port path 99966
// Flattened IE at /~R0<28> uses port path 99965
// Flattened IE at /~R0<22> uses port path 99964
// Flattened IE at /~R1<14> uses port path 99963
// Flattened IE at /~R0<21> uses port path 99962
// Flattened IE at /~W0<8> uses port path 99961
// Flattened IE at /~W0<0> uses port path 99960
// Flattened IE at /~R0<16> uses port path 99959
// Flattened IE at /~W1<21> uses port path 99958
// Flattened IE at /~W1<20> uses port path 99957
// Flattened IE at /~R1<10> uses port path 99956
// Flattened IE at /~W1<19> uses port path 99955
// Flattened IE at /~W_Addr<6> uses port path 99954
// Flattened IE at /~R1<19> uses port path 99953
// Flattened IE at /~R0<4> uses port path 99952
// Flattened IE at /~W0<19> uses port path 99951
// Flattened IE at /~W1<18> uses port path 99950
// Flattened IE at /~W0<17> uses port path 99949
// Flattened IE at /~W1<17> uses port path 99948
// Flattened IE at /~Reset uses port path 99947
// Flattened IE at /~W1<26> uses port path 99946
// Flattened IE at /~W1<9> uses port path 99945
// Flattened IE at /~W1<16> uses port path 99944
// Flattened IE at /~R1<18> uses port path 99943
// Flattened IE at /~R0<3> uses port path 99942
// Flattened IE at /~R1<13> uses port path 99941
// Flattened IE at /~W1<4> uses port path 99940
// Flattened IE at /~W1<25> uses port path 99939
// Flattened IE at /~R0<2> uses port path 99938
// Flattened IE at /~R1<9> uses port path 99937
// Flattened IE at /~R0<10> uses port path 99936
// Flattened IE at /~R0<6> uses port path 99935
// Flattened IE at /~R1<17> uses port path 99934
// Flattened IE at /~W0<14> uses port path 99933
// Flattened IE at /~W1<3> uses port path 99932
// Flattened IE at /~W1<15> uses port path 99931
// Flattened IE at /~W1<2> uses port path 99930
// Flattened IE at /~W0<23> uses port path 99929
// Flattened IE at /~W1<14> uses port path 99928
// Flattened IE at /~W1<1> uses port path 99927
// Flattened IE at /~W1<8> uses port path 99926
// Flattened IE at /~W1<7> uses port path 99925
// Flattened IE at /~R0<18> uses port path 99924
// Flattened IE at /~R0<17> uses port path 99923
// Flattened IE at /~W1<6> uses port path 99922
// Flattened IE at /~W_Addr<1> uses port path 99921
// Flattened IE at /~W0<16> uses port path 99920
// Flattened IE at /~R1<16> uses port path 99919
// Flattened IE at /~W1<5> uses port path 99918
// Flattened IE at /~R1<12> uses port path 99917
// Flattened IE at /~R_Addr<2> uses port path 99916
// Flattened IE at /~W1<27> uses port path 99915
// Flattened IE at /~R1<15> uses port path 99914
// Flattened IE at /~W0<22> uses port path 99913
// Flattened IE at /~W0<21> uses port path 99912
// Flattened IE at /~W0<20> uses port path 99911
// Flattened IE at /~W0<15> uses port path 99910
// Flattened IE at /~R1<4> uses port path 99909
// Flattened IE at /~R1<3> uses port path 99908
// Flattened IE at /~R_Addr<6> uses port path 99907
// Flattened IE at /~R_Addr<5> uses port path 99906
// Flattened IE at /~W1<0> uses port path 99905
// Flattened IE at /~R1<2> uses port path 99904
// Flattened IE at /~W1<24> uses port path 99903
// Flattened IE at /~R0<9> uses port path 99902
// Flattened IE at /~R0<8> uses port path 99901
// Flattened IE at /~W_Addr<4> uses port path 99900
// Flattened IE at /~R0<1> uses port path 99899
// Flattened IE at /~R1<5> uses port path 99898
// Flattened IE at /~R_Addr<4> uses port path 99897
// Flattened IE at /~R1<7> uses port path 99896
// Flattened IE at /~W0<6> uses port path 99895
// Flattened IE at /~W0<5> uses port path 99894
// Flattened IE at /~W0<4> uses port path 99893
// Flattened IE at /~W0<3> uses port path 99892
// Flattened IE at /~W0<2> uses port path 99891
// Flattened IE at /~R0<0> uses port path 99890
// Flattened IE at /~R1<22> uses port path 99889
// Flattened IE at /~W_Addr<3> uses port path 99888
// Flattened IE at /~R_ack uses port path 99887
// Flattened IE at /~W0<1> uses port path 99886
// Flattened IE at /~R0<27> uses port path 99885
// Flattened IE at /~R1<8> uses port path 99884
// Flattened IE at /~W0<30> uses port path 99883
// Flattened IE at /~W_ack uses port path 99882
// Flattened IE at /~R0<26> uses port path 99881
// Flattened IE at /~R0<15> uses port path 99880
// Flattened IE at /~GoR uses port path 99879
// Flattened IE at /~W0<29> uses port path 99878
// Flattened IE at /~R0<25> uses port path 99877
// Flattened IE at /~W1<31> uses port path 99876
// Flattened IE at /~W0<13> uses port path 99875
// Flattened IE at /~R0<24> uses port path 99874
// Flattened IE at /~W0<28> uses port path 99873
// Flattened IE at /~R1<0> uses port path 99872
// Flattened IE at /~W1<30> uses port path 99871
// Flattened IE at /~W0<12> uses port path 99870
// Flattened IE at /~W0<27> uses port path 99869
// Flattened IE at /~W0<26> uses port path 99868
// Flattened IE at /~R_Addr<3> uses port path 99867
// Flattened IE at /~R_Addr<0> uses port path 99866
// Flattened IE at /~R0<14> uses port path 99865
// Flattened IE at /~R1<1> uses port path 99864
// Flattened IE at /~W1<23> uses port path 99863
// Flattened IE at /~R0<13> uses port path 99862
// Flattened IE at /~W0<25> uses port path 99861
// Flattened IE at /~W0<11> uses port path 99860
// Flattened IE at /~R0<20> uses port path 99859
// Flattened IE at /~W1<22> uses port path 99858
// Flattened IE at /~W0<24> uses port path 99857
// Flattened IE at /~R0<19> uses port path 99856
// Flattened IE at /~W_Addr<0> uses port path 99855
// Flattened IE at /~R0<11> uses port path 99854
// Flattened IE at /~R0<7> uses port path 99853
// END Flat Interface Elements

// Library name: 16nm
// Cell name: inv_1x
// View name: schematic
// Inherited view list: spectre spice verilog behavioral functional hdl
//system verilogNetlist schematic cmos.sch cmos_sch veriloga ahdl
subckt inv_1x A Y
    M0 (Y A 0 0) nfet w=288n l=20n as=9.45e-15 ad=9.45e-15 ps=300n pd=300n \
        ld=105n ls=105n m=1 degradation=no
    M1 (Y A vdd! vdd!) pfet w=90n l=20n as=9.45e-15 ad=9.45e-15 ps=300n \
        pd=300n ld=105n ls=105n m=1 degradation=no
ends inv_1x
// End of subcircuit definition.

// Library name: 16nm
// Cell name: nand_1x
// View name: schematic
// Inherited view list: spectre spice verilog behavioral functional hdl
//system verilogNetlist schematic cmos.sch cmos_sch veriloga ahdl
subckt nand_1x A B Y
    M1 (Y B vdd! vdd!) pfet w=90n l=20n as=9.45e-15 ad=9.45e-15 ps=300n \
        pd=300n ld=105n ls=105n m=1 region=off degradation=no
    M0 (Y A vdd! vdd!) pfet w=90n l=20n as=9.45e-15 ad=9.45e-15 ps=300n \
        pd=300n ld=105n ls=105n m=1 region=off degradation=no
    M3 (net22 B 0 0) nfet w=288n l=20n as=9.45e-15 ad=9.45e-15 ps=300n \
        pd=300n ld=105n ls=105n m=1 degradation=no
    M2 (Y A net22 0) nfet w=288n l=20n as=9.45e-15 ad=9.45e-15 ps=300n \
        pd=300n ld=105n ls=105n m=1 degradation=no
ends nand_1x
// End of subcircuit definition.

// Library name: 16nm
// Cell name: TH44
// View name: schematic
// Inherited view list: spectre spice verilog behavioral functional hdl
//system verilogNetlist schematic cmos.sch cmos_sch veriloga ahdl
subckt TH44 A B C D Y
    M19 (net13 A 0 0) nfet w=80n l=16n as=9.45e-15 ad=9.45e-15 ps=300n \
        pd=300n m=1
    M18 (net13 B 0 0) nfet w=80n l=16n as=9.45e-15 ad=9.45e-15 ps=300n \
        pd=300n m=1
    M17 (net13 C 0 0) nfet w=80n l=16n as=9.45e-15 ad=9.45e-15 ps=300n \
        pd=300n m=1
    M16 (net13 D 0 0) nfet w=80n l=16n as=9.45e-15 ad=9.45e-15 ps=300n \
        pd=300n m=1
    M15 (Y net19 0 0) nfet w=40n l=16n as=9.45e-15 ad=9.45e-15 ps=300n \
        pd=300n m=1
    M14 (net42 A 0 0) nfet w=160n l=16n as=9.45e-15 ad=9.45e-15 ps=300n \
        pd=300n m=1
    M13 (net43 B net42 0) nfet w=160n l=16n as=9.45e-15 ad=9.45e-15 \
        ps=300n pd=300n m=1
    M12 (net44 C net43 0) nfet w=160n l=16n as=9.45e-15 ad=9.45e-15 \
        ps=300n pd=300n m=1
    M11 (net19 D net44 0) nfet w=160n l=16n as=9.45e-15 ad=9.45e-15 \
        ps=300n pd=300n m=1
    M10 (net19 Y net13 0) nfet w=80n l=16n as=9.45e-15 ad=9.45e-15 ps=300n \
        pd=300n m=1
    M9 (Y net19 vdd! vdd!) pfet w=80n l=16n as=9.45e-15 ad=9.45e-15 \
        ps=300n pd=300n m=1
    M8 (net19 Y net15 vdd!) pfet w=160n l=16n as=9.45e-15 ad=9.45e-15 \
        ps=300n pd=300n m=1
    M7 (net15 D vdd! vdd!) pfet w=160n l=16n as=9.45e-15 ad=9.45e-15 \
        ps=300n pd=300n m=1
    M6 (net15 C vdd! vdd!) pfet w=160n l=16n as=9.45e-15 ad=9.45e-15 \
        ps=300n pd=300n m=1
    M5 (net15 B vdd! vdd!) pfet w=160n l=16n as=9.45e-15 ad=9.45e-15 \
        ps=300n pd=300n m=1
    M4 (net15 A vdd! vdd!) pfet w=160n l=16n as=9.45e-15 ad=9.45e-15 \
        ps=300n pd=300n m=1
    M3 (net19 D net45 vdd!) pfet w=320n l=16n as=9.45e-15 ad=9.45e-15 \
        ps=300n pd=300n m=1
    M2 (net45 C net46 vdd!) pfet w=320n l=16n as=9.45e-15 ad=9.45e-15 \
        ps=300n pd=300n m=1
    M1 (net46 B net47 vdd!) pfet w=320n l=16n as=9.45e-15 ad=9.45e-15 \
        ps=300n pd=300n m=1
    M0 (net47 A vdd! vdd!) pfet w=320n l=16n as=9.45e-15 ad=9.45e-15 \
        ps=300n pd=300n m=1
ends TH44
// End of subcircuit definition.

// Library name: 16nm
// Cell name: TH22
// View name: schematic
// Inherited view list: spectre spice verilog behavioral functional hdl
//system verilogNetlist schematic cmos.sch cmos_sch veriloga ahdl
subckt TH22 A B Y
    M5 (Y net5 0 0) nfet w=48n l=16n as=9.45e-15 ad=9.45e-15 ps=300n \
        pd=300n m=1
    M4 (net5 Y net9 0) nfet w=48n l=16n as=9.45e-15 ad=9.45e-15 ps=300n \
        pd=300n m=1
    M3 (net9 B 0 0) nfet w=48n l=16n as=9.45e-15 ad=9.45e-15 ps=300n \
        pd=300n m=1
    M2 (net9 A 0 0) nfet w=48n l=16n as=9.45e-15 ad=9.45e-15 ps=300n \
        pd=300n m=1
    M1 (net5 B net17 0) nfet w=80n l=16n as=9.45e-15 ad=9.45e-15 ps=300n \
        pd=300n m=1
    M0 (net17 A 0 0) nfet w=80n l=16n as=9.45e-15 ad=9.45e-15 ps=300n \
        pd=300n m=1
    M11 (Y net5 vdd! vdd!) pfet w=80n l=16n as=9.45e-15 ad=9.45e-15 \
        ps=300n pd=300n m=1
    M10 (net5 B net032 vdd!) pfet w=160n l=16n as=9.45e-15 ad=9.45e-15 \
        ps=300n pd=300n m=1
    M9 (net032 A vdd! vdd!) pfet w=160n l=16n as=9.45e-15 ad=9.45e-15 \
        ps=300n pd=300n m=1
    M8 (net037 B vdd! vdd!) pfet w=80n l=16n as=9.45e-15 ad=9.45e-15 \
        ps=300n pd=300n m=1
    M7 (net037 A vdd! vdd!) pfet w=80n l=16n as=9.45e-15 ad=9.45e-15 \
        ps=300n pd=300n m=1
    M6 (net5 Y net037 vdd!) pfet w=80n l=16n as=9.45e-15 ad=9.45e-15 \
        ps=300n pd=300n m=1
ends TH22
// End of subcircuit definition.

// Library name: 16nm
// Cell name: 10T_DUAL_SRAM_CompDetect
// View name: schematic
// Inherited view list: spectre spice verilog behavioral functional hdl
//system verilogNetlist schematic cmos.sch cmos_sch veriloga ahdl
subckt _sub0 KRe KRv KWe KWv R0_31 R0_30 R0_29 R0_28 R0_27 R0_26 R0_25 \
        R0_24 R0_23 R0_22 R0_21 R0_20 R0_19 R0_18 R0_17 R0_16 R0_15 R0_14 \
        R0_13 R0_12 R0_11 R0_10 R0_9 R0_8 R0_7 R0_6 R0_5 R0_4 R0_3 R0_2 \
        R0_1 R0_0 R1_31 R1_30 R1_29 R1_28 R1_27 R1_26 R1_25 R1_24 R1_23 \
        R1_22 R1_21 R1_20 R1_19 R1_18 R1_17 R1_16 R1_15 R1_14 R1_13 R1_12 \
        R1_11 R1_10 R1_9 R1_8 R1_7 R1_6 R1_5 R1_4 R1_3 R1_2 R1_1 R1_0 \
        Re2_7 Re2_6 Re2_5 Re2_4 Re2_3 Re2_2 Re2_1 Re2_0 W0_31 W0_30 W0_29 \
        W0_28 W0_27 W0_26 W0_25 W0_24 W0_23 W0_22 W0_21 W0_20 W0_19 W0_18 \
        W0_17 W0_16 W0_15 W0_14 W0_13 W0_12 W0_11 W0_10 W0_9 W0_8 W0_7 \
        W0_6 W0_5 W0_4 W0_3 W0_2 W0_1 W0_0 W1_31 W1_30 W1_29 W1_28 W1_27 \
        W1_26 W1_25 W1_24 W1_23 W1_22 W1_21 W1_20 W1_19 W1_18 W1_17 W1_16 \
        W1_15 W1_14 W1_13 W1_12 W1_11 W1_10 W1_9 W1_8 W1_7 W1_6 W1_5 W1_4 \
        W1_3 W1_2 W1_1 W1_0 We_7 We_6 We_5 We_4 We_3 We_2 We_1 We_0 \
        \~R0_31 \~R0_30 \~R0_29 \~R0_28 \~R0_27 \~R0_26 \~R0_25 \~R0_24 \
        \~R0_23 \~R0_22 \~R0_21 \~R0_20 \~R0_19 \~R0_18 \~R0_17 \~R0_16 \
        \~R0_15 \~R0_14 \~R0_13 \~R0_12 \~R0_11 \~R0_10 \~R0_9 \~R0_8 \
        \~R0_7 \~R0_6 \~R0_5 \~R0_4 \~R0_3 \~R0_2 \~R0_1 \~R0_0 \~R1_31 \
        \~R1_30 \~R1_29 \~R1_28 \~R1_27 \~R1_26 \~R1_25 \~R1_24 \~R1_23 \
        \~R1_22 \~R1_21 \~R1_20 \~R1_19 \~R1_18 \~R1_17 \~R1_16 \~R1_15 \
        \~R1_14 \~R1_13 \~R1_12 \~R1_11 \~R1_10 \~R1_9 \~R1_8 \~R1_7 \
        \~R1_6 \~R1_5 \~R1_4 \~R1_3 \~R1_2 \~R1_1 \~R1_0 \~W0_31 \~W0_30 \
        \~W0_29 \~W0_28 \~W0_27 \~W0_26 \~W0_25 \~W0_24 \~W0_23 \~W0_22 \
        \~W0_21 \~W0_20 \~W0_19 \~W0_18 \~W0_17 \~W0_16 \~W0_15 \~W0_14 \
        \~W0_13 \~W0_12 \~W0_11 \~W0_10 \~W0_9 \~W0_8 \~W0_7 \~W0_6 \~W0_5 \
        \~W0_4 \~W0_3 \~W0_2 \~W0_1 \~W0_0 \~W1_31 \~W1_30 \~W1_29 \~W1_28 \
        \~W1_27 \~W1_26 \~W1_25 \~W1_24 \~W1_23 \~W1_22 \~W1_21 \~W1_20 \
        \~W1_19 \~W1_18 \~W1_17 \~W1_16 \~W1_15 \~W1_14 \~W1_13 \~W1_12 \
        \~W1_11 \~W1_10 \~W1_9 \~W1_8 \~W1_7 \~W1_6 \~W1_5 \~W1_4 \~W1_3 \
        \~W1_2 \~W1_1 \~W1_0
    I77_3 (net0117_0 We_7) inv_1x
    I77_2 (net0117_1 We_6) inv_1x
    I77_1 (net0117_2 We_5) inv_1x
    I77_0 (net0117_3 We_4) inv_1x
    I76_3 (net0118_0 We_3) inv_1x
    I76_2 (net0118_1 We_2) inv_1x
    I76_1 (net0118_2 We_1) inv_1x
    I76_0 (net0118_3 We_0) inv_1x
    I75_3 (net0115_0 Re2_7) inv_1x
    I75_2 (net0115_1 Re2_6) inv_1x
    I75_1 (net0115_2 Re2_5) inv_1x
    I75_0 (net0115_3 Re2_4) inv_1x
    I73_3 (\~KRe_7 net0115_0) inv_1x
    I73_2 (\~KRe_6 net0115_1) inv_1x
    I73_1 (\~KRe_5 net0115_2) inv_1x
    I73_0 (\~KRe_4 net0115_3) inv_1x
    I72_3 (\~KRe_3 net0116_0) inv_1x
    I72_2 (\~KRe_2 net0116_1) inv_1x
    I72_1 (\~KRe_1 net0116_2) inv_1x
    I72_0 (\~KRe_0 net0116_3) inv_1x
    I71_3 (\~KWe_7 net0117_0) inv_1x
    I71_2 (\~KWe_6 net0117_1) inv_1x
    I71_1 (\~KWe_5 net0117_2) inv_1x
    I71_0 (\~KWe_4 net0117_3) inv_1x
    I70_3 (\~KWe_3 net0118_0) inv_1x
    I70_2 (\~KWe_2 net0118_1) inv_1x
    I70_1 (\~KWe_1 net0118_2) inv_1x
    I70_0 (\~KWe_0 net0118_3) inv_1x
    I66 (KRve_0 \~KRe_0) inv_1x
    I63 (KRve_1 \~KRe_1) inv_1x
    I59 (KRve_2 \~KRe_2) inv_1x
    I56 (KRve_3 \~KRe_3) inv_1x
    I52 (KRve_4 \~KRe_4) inv_1x
    I49 (KRve_5 \~KRe_5) inv_1x
    I45 (KRve_6 \~KRe_6) inv_1x
    I42 (KRve_7 \~KRe_7) inv_1x
    I37 (KWve_7 \~KWe_7) inv_1x
    I36 (KWve_6 \~KWe_6) inv_1x
    I35 (KWve_5 \~KWe_5) inv_1x
    I34 (KWve_4 \~KWe_4) inv_1x
    I33 (KWve_3 \~KWe_3) inv_1x
    I32 (KWve_2 \~KWe_2) inv_1x
    I31 (KWve_1 \~KWe_1) inv_1x
    I30 (KWve_0 \~KWe_0) inv_1x
    I74_3 (net0116_0 Re2_3) inv_1x
    I74_2 (net0116_1 Re2_2) inv_1x
    I74_1 (net0116_2 Re2_1) inv_1x
    I74_0 (net0116_3 Re2_0) inv_1x
    I3_31 (\~R1_31 R1_31) inv_1x
    I3_30 (\~R1_30 R1_30) inv_1x
    I3_29 (\~R1_29 R1_29) inv_1x
    I3_28 (\~R1_28 R1_28) inv_1x
    I3_27 (\~R1_27 R1_27) inv_1x
    I3_26 (\~R1_26 R1_26) inv_1x
    I3_25 (\~R1_25 R1_25) inv_1x
    I3_24 (\~R1_24 R1_24) inv_1x
    I3_23 (\~R1_23 R1_23) inv_1x
    I3_22 (\~R1_22 R1_22) inv_1x
    I3_21 (\~R1_21 R1_21) inv_1x
    I3_20 (\~R1_20 R1_20) inv_1x
    I3_19 (\~R1_19 R1_19) inv_1x
    I3_18 (\~R1_18 R1_18) inv_1x
    I3_17 (\~R1_17 R1_17) inv_1x
    I3_16 (\~R1_16 R1_16) inv_1x
    I3_15 (\~R1_15 R1_15) inv_1x
    I3_14 (\~R1_14 R1_14) inv_1x
    I3_13 (\~R1_13 R1_13) inv_1x
    I3_12 (\~R1_12 R1_12) inv_1x
    I3_11 (\~R1_11 R1_11) inv_1x
    I3_10 (\~R1_10 R1_10) inv_1x
    I3_9 (\~R1_9 R1_9) inv_1x
    I3_8 (\~R1_8 R1_8) inv_1x
    I3_7 (\~R1_7 R1_7) inv_1x
    I3_6 (\~R1_6 R1_6) inv_1x
    I3_5 (\~R1_5 R1_5) inv_1x
    I3_4 (\~R1_4 R1_4) inv_1x
    I3_3 (\~R1_3 R1_3) inv_1x
    I3_2 (\~R1_2 R1_2) inv_1x
    I3_1 (\~R1_1 R1_1) inv_1x
    I3_0 (\~R1_0 R1_0) inv_1x
    I2_31 (\~R0_31 R0_31) inv_1x
    I2_30 (\~R0_30 R0_30) inv_1x
    I2_29 (\~R0_29 R0_29) inv_1x
    I2_28 (\~R0_28 R0_28) inv_1x
    I2_27 (\~R0_27 R0_27) inv_1x
    I2_26 (\~R0_26 R0_26) inv_1x
    I2_25 (\~R0_25 R0_25) inv_1x
    I2_24 (\~R0_24 R0_24) inv_1x
    I2_23 (\~R0_23 R0_23) inv_1x
    I2_22 (\~R0_22 R0_22) inv_1x
    I2_21 (\~R0_21 R0_21) inv_1x
    I2_20 (\~R0_20 R0_20) inv_1x
    I2_19 (\~R0_19 R0_19) inv_1x
    I2_18 (\~R0_18 R0_18) inv_1x
    I2_17 (\~R0_17 R0_17) inv_1x
    I2_16 (\~R0_16 R0_16) inv_1x
    I2_15 (\~R0_15 R0_15) inv_1x
    I2_14 (\~R0_14 R0_14) inv_1x
    I2_13 (\~R0_13 R0_13) inv_1x
    I2_12 (\~R0_12 R0_12) inv_1x
    I2_11 (\~R0_11 R0_11) inv_1x
    I2_10 (\~R0_10 R0_10) inv_1x
    I2_9 (\~R0_9 R0_9) inv_1x
    I2_8 (\~R0_8 R0_8) inv_1x
    I2_7 (\~R0_7 R0_7) inv_1x
    I2_6 (\~R0_6 R0_6) inv_1x
    I2_5 (\~R0_5 R0_5) inv_1x
    I2_4 (\~R0_4 R0_4) inv_1x
    I2_3 (\~R0_3 R0_3) inv_1x
    I2_2 (\~R0_2 R0_2) inv_1x
    I2_1 (\~R0_1 R0_1) inv_1x
    I2_0 (\~R0_0 R0_0) inv_1x
    I1_31 (W1_31 \~W1_31) inv_1x
    I1_30 (W1_30 \~W1_30) inv_1x
    I1_29 (W1_29 \~W1_29) inv_1x
    I1_28 (W1_28 \~W1_28) inv_1x
    I1_27 (W1_27 \~W1_27) inv_1x
    I1_26 (W1_26 \~W1_26) inv_1x
    I1_25 (W1_25 \~W1_25) inv_1x
    I1_24 (W1_24 \~W1_24) inv_1x
    I1_23 (W1_23 \~W1_23) inv_1x
    I1_22 (W1_22 \~W1_22) inv_1x
    I1_21 (W1_21 \~W1_21) inv_1x
    I1_20 (W1_20 \~W1_20) inv_1x
    I1_19 (W1_19 \~W1_19) inv_1x
    I1_18 (W1_18 \~W1_18) inv_1x
    I1_17 (W1_17 \~W1_17) inv_1x
    I1_16 (W1_16 \~W1_16) inv_1x
    I1_15 (W1_15 \~W1_15) inv_1x
    I1_14 (W1_14 \~W1_14) inv_1x
    I1_13 (W1_13 \~W1_13) inv_1x
    I1_12 (W1_12 \~W1_12) inv_1x
    I1_11 (W1_11 \~W1_11) inv_1x
    I1_10 (W1_10 \~W1_10) inv_1x
    I1_9 (W1_9 \~W1_9) inv_1x
    I1_8 (W1_8 \~W1_8) inv_1x
    I1_7 (W1_7 \~W1_7) inv_1x
    I1_6 (W1_6 \~W1_6) inv_1x
    I1_5 (W1_5 \~W1_5) inv_1x
    I1_4 (W1_4 \~W1_4) inv_1x
    I1_3 (W1_3 \~W1_3) inv_1x
    I1_2 (W1_2 \~W1_2) inv_1x
    I1_1 (W1_1 \~W1_1) inv_1x
    I1_0 (W1_0 \~W1_0) inv_1x
    I0_31 (W0_31 \~W0_31) inv_1x
    I0_30 (W0_30 \~W0_30) inv_1x
    I0_29 (W0_29 \~W0_29) inv_1x
    I0_28 (W0_28 \~W0_28) inv_1x
    I0_27 (W0_27 \~W0_27) inv_1x
    I0_26 (W0_26 \~W0_26) inv_1x
    I0_25 (W0_25 \~W0_25) inv_1x
    I0_24 (W0_24 \~W0_24) inv_1x
    I0_23 (W0_23 \~W0_23) inv_1x
    I0_22 (W0_22 \~W0_22) inv_1x
    I0_21 (W0_21 \~W0_21) inv_1x
    I0_20 (W0_20 \~W0_20) inv_1x
    I0_19 (W0_19 \~W0_19) inv_1x
    I0_18 (W0_18 \~W0_18) inv_1x
    I0_17 (W0_17 \~W0_17) inv_1x
    I0_16 (W0_16 \~W0_16) inv_1x
    I0_15 (W0_15 \~W0_15) inv_1x
    I0_14 (W0_14 \~W0_14) inv_1x
    I0_13 (W0_13 \~W0_13) inv_1x
    I0_12 (W0_12 \~W0_12) inv_1x
    I0_11 (W0_11 \~W0_11) inv_1x
    I0_10 (W0_10 \~W0_10) inv_1x
    I0_9 (W0_9 \~W0_9) inv_1x
    I0_8 (W0_8 \~W0_8) inv_1x
    I0_7 (W0_7 \~W0_7) inv_1x
    I0_6 (W0_6 \~W0_6) inv_1x
    I0_5 (W0_5 \~W0_5) inv_1x
    I0_4 (W0_4 \~W0_4) inv_1x
    I0_3 (W0_3 \~W0_3) inv_1x
    I0_2 (W0_2 \~W0_2) inv_1x
    I0_1 (W0_1 \~W0_1) inv_1x
    I0_0 (W0_0 \~W0_0) inv_1x
    I5_31 (\~R0_31 \~R1_31 Rnand_31) nand_1x
    I5_30 (\~R0_30 \~R1_30 Rnand_30) nand_1x
    I5_29 (\~R0_29 \~R1_29 Rnand_29) nand_1x
    I5_28 (\~R0_28 \~R1_28 Rnand_28) nand_1x
    I5_27 (\~R0_27 \~R1_27 Rnand_27) nand_1x
    I5_26 (\~R0_26 \~R1_26 Rnand_26) nand_1x
    I5_25 (\~R0_25 \~R1_25 Rnand_25) nand_1x
    I5_24 (\~R0_24 \~R1_24 Rnand_24) nand_1x
    I5_23 (\~R0_23 \~R1_23 Rnand_23) nand_1x
    I5_22 (\~R0_22 \~R1_22 Rnand_22) nand_1x
    I5_21 (\~R0_21 \~R1_21 Rnand_21) nand_1x
    I5_20 (\~R0_20 \~R1_20 Rnand_20) nand_1x
    I5_19 (\~R0_19 \~R1_19 Rnand_19) nand_1x
    I5_18 (\~R0_18 \~R1_18 Rnand_18) nand_1x
    I5_17 (\~R0_17 \~R1_17 Rnand_17) nand_1x
    I5_16 (\~R0_16 \~R1_16 Rnand_16) nand_1x
    I5_15 (\~R0_15 \~R1_15 Rnand_15) nand_1x
    I5_14 (\~R0_14 \~R1_14 Rnand_14) nand_1x
    I5_13 (\~R0_13 \~R1_13 Rnand_13) nand_1x
    I5_12 (\~R0_12 \~R1_12 Rnand_12) nand_1x
    I5_11 (\~R0_11 \~R1_11 Rnand_11) nand_1x
    I5_10 (\~R0_10 \~R1_10 Rnand_10) nand_1x
    I5_9 (\~R0_9 \~R1_9 Rnand_9) nand_1x
    I5_8 (\~R0_8 \~R1_8 Rnand_8) nand_1x
    I5_7 (\~R0_7 \~R1_7 Rnand_7) nand_1x
    I5_6 (\~R0_6 \~R1_6 Rnand_6) nand_1x
    I5_5 (\~R0_5 \~R1_5 Rnand_5) nand_1x
    I5_4 (\~R0_4 \~R1_4 Rnand_4) nand_1x
    I5_3 (\~R0_3 \~R1_3 Rnand_3) nand_1x
    I5_2 (\~R0_2 \~R1_2 Rnand_2) nand_1x
    I5_1 (\~R0_1 \~R1_1 Rnand_1) nand_1x
    I5_0 (\~R0_0 \~R1_0 Rnand_0) nand_1x
    I4_31 (\~W0_31 \~W1_31 Wnand_31) nand_1x
    I4_30 (\~W0_30 \~W1_30 Wnand_30) nand_1x
    I4_29 (\~W0_29 \~W1_29 Wnand_29) nand_1x
    I4_28 (\~W0_28 \~W1_28 Wnand_28) nand_1x
    I4_27 (\~W0_27 \~W1_27 Wnand_27) nand_1x
    I4_26 (\~W0_26 \~W1_26 Wnand_26) nand_1x
    I4_25 (\~W0_25 \~W1_25 Wnand_25) nand_1x
    I4_24 (\~W0_24 \~W1_24 Wnand_24) nand_1x
    I4_23 (\~W0_23 \~W1_23 Wnand_23) nand_1x
    I4_22 (\~W0_22 \~W1_22 Wnand_22) nand_1x
    I4_21 (\~W0_21 \~W1_21 Wnand_21) nand_1x
    I4_20 (\~W0_20 \~W1_20 Wnand_20) nand_1x
    I4_19 (\~W0_19 \~W1_19 Wnand_19) nand_1x
    I4_18 (\~W0_18 \~W1_18 Wnand_18) nand_1x
    I4_17 (\~W0_17 \~W1_17 Wnand_17) nand_1x
    I4_16 (\~W0_16 \~W1_16 Wnand_16) nand_1x
    I4_15 (\~W0_15 \~W1_15 Wnand_15) nand_1x
    I4_14 (\~W0_14 \~W1_14 Wnand_14) nand_1x
    I4_13 (\~W0_13 \~W1_13 Wnand_13) nand_1x
    I4_12 (\~W0_12 \~W1_12 Wnand_12) nand_1x
    I4_11 (\~W0_11 \~W1_11 Wnand_11) nand_1x
    I4_10 (\~W0_10 \~W1_10 Wnand_10) nand_1x
    I4_9 (\~W0_9 \~W1_9 Wnand_9) nand_1x
    I4_8 (\~W0_8 \~W1_8 Wnand_8) nand_1x
    I4_7 (\~W0_7 \~W1_7 Wnand_7) nand_1x
    I4_6 (\~W0_6 \~W1_6 Wnand_6) nand_1x
    I4_5 (\~W0_5 \~W1_5 Wnand_5) nand_1x
    I4_4 (\~W0_4 \~W1_4 Wnand_4) nand_1x
    I4_3 (\~W0_3 \~W1_3 Wnand_3) nand_1x
    I4_2 (\~W0_2 \~W1_2 Wnand_2) nand_1x
    I4_1 (\~W0_1 \~W1_1 Wnand_1) nand_1x
    I4_0 (\~W0_0 \~W1_0 Wnand_0) nand_1x
    I68 (Rnand_0 Rnand_1 Rnand_2 Rnand_3 Rv_0) TH44
    I65 (Rnand_4 Rnand_5 Rnand_6 Rnand_7 Rv_1) TH44
    I62 (\~KRe_0 \~KRe_1 \~KRe_2 \~KRe_3 net088) TH44
    I61 (Rnand_8 Rnand_9 Rnand_10 Rnand_11 Rv_2) TH44
    I58 (Rnand_12 Rnand_13 Rnand_14 Rnand_15 Rv_3) TH44
    I54 (Rnand_16 Rnand_17 Rnand_18 Rnand_19 Rv_4) TH44
    I51 (Rnand_20 Rnand_21 Rnand_22 Rnand_23 Rv_5) TH44
    I48 (\~KRe_4 \~KRe_5 \~KRe_6 \~KRe_7 net087) TH44
    I47 (Rnand_24 Rnand_25 Rnand_26 Rnand_27 Rv_6) TH44
    I44 (Rnand_28 Rnand_29 Rnand_30 Rnand_31 Rv_7) TH44
    I39 (\~KWe_4 \~KWe_5 \~KWe_6 \~KWe_7 net089) TH44
    I38 (\~KWe_0 \~KWe_1 \~KWe_2 \~KWe_3 net090) TH44
    I13 (Wnand_28 Wnand_29 Wnand_30 Wnand_31 Wv_7) TH44
    I12 (Wnand_24 Wnand_25 Wnand_26 Wnand_27 Wv_6) TH44
    I11 (Wnand_20 Wnand_21 Wnand_22 Wnand_23 Wv_5) TH44
    I10 (Wnand_16 Wnand_17 Wnand_18 Wnand_19 Wv_4) TH44
    I9 (Wnand_12 Wnand_13 Wnand_14 Wnand_15 Wv_3) TH44
    I8 (Wnand_8 Wnand_9 Wnand_10 Wnand_11 Wv_2) TH44
    I7 (Wnand_4 Wnand_5 Wnand_6 Wnand_7 Wv_1) TH44
    I6 (Wnand_0 Wnand_1 Wnand_2 Wnand_3 Wv_0) TH44
    I67 (KRv Rv_0 KRve_0) TH22
    I64 (KRv Rv_1 KRve_1) TH22
    I60 (KRv Rv_2 KRve_2) TH22
    I57 (KRv Rv_3 KRve_3) TH22
    I55 (net088 net087 KRe) TH22
    I53 (KRv Rv_4 KRve_4) TH22
    I50 (KRv Rv_5 KRve_5) TH22
    I46 (KRv Rv_6 KRve_6) TH22
    I43 (KRv Rv_7 KRve_7) TH22
    I41 (net090 net089 KWe) TH22
    I23 (Wv_1 KWv KWve_1) TH22
    I24 (Wv_2 KWv KWve_2) TH22
    I25 (Wv_3 KWv KWve_3) TH22
    I26 (Wv_4 KWv KWve_4) TH22
    I22 (Wv_0 KWv KWve_0) TH22
    I27 (Wv_5 KWv KWve_5) TH22
    I28 (Wv_6 KWv KWve_6) TH22
    I29 (Wv_7 KWv KWve_7) TH22
ends _sub0
// End of subcircuit definition.

// Library name: 16nm
// Cell name: 10T
// View name: schematic
// Inherited view list: spectre spice verilog behavioral functional hdl
//system verilogNetlist schematic cmos.sch cmos_sch veriloga ahdl
subckt _sub1 JRi JWi \~R0 \~R1 \~W0 \~W1
    I3 (Q Qb) inv_1x
    I1 (Qb Q) inv_1x
    M1 (\~R1 JRi net023 0) nfet w=40n l=16n as=9.45e-15 ad=9.45e-15 \
        ps=300n pd=300n m=1
    M0 (Qb JWi \~W0 0) nfet w=40n l=16n as=9.45e-15 ad=9.45e-15 ps=300n \
        pd=300n m=1
    M2 (net023 Qb 0 0) nfet w=40n l=16n as=9.45e-15 ad=9.45e-15 ps=300n \
        pd=300n m=1
    M5 (\~R0 JRi net020 0) nfet w=40n l=16n as=9.45e-15 ad=9.45e-15 \
        ps=300n pd=300n m=1
    M3 (net020 Q 0 0) nfet w=40n l=16n as=9.45e-15 ad=9.45e-15 ps=300n \
        pd=300n m=1
    M4 (Q JWi \~W1 0) nfet w=40n l=16n as=9.45e-15 ad=9.45e-15 ps=300n \
        pd=300n m=1
ends _sub1
// End of subcircuit definition.

// Library name: 16nm
// Cell name: 10T_4x
// View name: schematic
// Inherited view list: spectre spice verilog behavioral functional hdl
//system verilogNetlist schematic cmos.sch cmos_sch veriloga ahdl
subckt _sub2 JRi JWi \~R0_3 \~R0_2 \~R0_1 \~R0_0 \~R1_3 \~R1_2 \~R1_1 \
        \~R1_0 \~W0_3 \~W0_2 \~W0_1 \~W0_0 \~W1_3 \~W1_2 \~W1_1 \~W1_0
    I3 (JRi JWi \~R0_0 \~R1_0 \~W0_0 \~W1_0) _sub1
    I2 (JRi JWi \~R0_1 \~R1_1 \~W0_1 \~W1_1) _sub1
    I1 (JRi JWi \~R0_2 \~R1_2 \~W0_2 \~W1_2) _sub1
    I0 (JRi JWi \~R0_3 \~R1_3 \~W0_3 \~W1_3) _sub1
ends _sub2
// End of subcircuit definition.

// Library name: 16nm
// Cell name: 10T_32x32
// View name: schematic
// Inherited view list: spectre spice verilog behavioral functional hdl
//system verilogNetlist schematic cmos.sch cmos_sch veriloga ahdl
subckt _sub3 JR_31 JR_30 JR_29 JR_28 JR_27 JR_26 JR_25 JR_24 JR_23 JR_22 \
        JR_21 JR_20 JR_19 JR_18 JR_17 JR_16 JR_15 JR_14 JR_13 JR_12 JR_11 \
        JR_10 JR_9 JR_8 JR_7 JR_6 JR_5 JR_4 JR_3 JR_2 JR_1 JR_0 JW_31 \
        JW_30 JW_29 JW_28 JW_27 JW_26 JW_25 JW_24 JW_23 JW_22 JW_21 JW_20 \
        JW_19 JW_18 JW_17 JW_16 JW_15 JW_14 JW_13 JW_12 JW_11 JW_10 JW_9 \
        JW_8 JW_7 JW_6 JW_5 JW_4 JW_3 JW_2 JW_1 JW_0 \~R0_31 \~R0_30 \
        \~R0_29 \~R0_28 \~R0_27 \~R0_26 \~R0_25 \~R0_24 \~R0_23 \~R0_22 \
        \~R0_21 \~R0_20 \~R0_19 \~R0_18 \~R0_17 \~R0_16 \~R0_15 \~R0_14 \
        \~R0_13 \~R0_12 \~R0_11 \~R0_10 \~R0_9 \~R0_8 \~R0_7 \~R0_6 \~R0_5 \
        \~R0_4 \~R0_3 \~R0_2 \~R0_1 \~R0_0 \~R1_31 \~R1_30 \~R1_29 \~R1_28 \
        \~R1_27 \~R1_26 \~R1_25 \~R1_24 \~R1_23 \~R1_22 \~R1_21 \~R1_20 \
        \~R1_19 \~R1_18 \~R1_17 \~R1_16 \~R1_15 \~R1_14 \~R1_13 \~R1_12 \
        \~R1_11 \~R1_10 \~R1_9 \~R1_8 \~R1_7 \~R1_6 \~R1_5 \~R1_4 \~R1_3 \
        \~R1_2 \~R1_1 \~R1_0 \~W0_31 \~W0_30 \~W0_29 \~W0_28 \~W0_27 \
        \~W0_26 \~W0_25 \~W0_24 \~W0_23 \~W0_22 \~W0_21 \~W0_20 \~W0_19 \
        \~W0_18 \~W0_17 \~W0_16 \~W0_15 \~W0_14 \~W0_13 \~W0_12 \~W0_11 \
        \~W0_10 \~W0_9 \~W0_8 \~W0_7 \~W0_6 \~W0_5 \~W0_4 \~W0_3 \~W0_2 \
        \~W0_1 \~W0_0 \~W1_31 \~W1_30 \~W1_29 \~W1_28 \~W1_27 \~W1_26 \
        \~W1_25 \~W1_24 \~W1_23 \~W1_22 \~W1_21 \~W1_20 \~W1_19 \~W1_18 \
        \~W1_17 \~W1_16 \~W1_15 \~W1_14 \~W1_13 \~W1_12 \~W1_11 \~W1_10 \
        \~W1_9 \~W1_8 \~W1_7 \~W1_6 \~W1_5 \~W1_4 \~W1_3 \~W1_2 \~W1_1 \
        \~W1_0
    I255 (JR_31 JW_31 \~R0_3 \~R0_2 \~R0_1 \~R0_0 \~R1_3 \~R1_2 \~R1_1 \
        \~R1_0 \~W0_3 \~W0_2 \~W0_1 \~W0_0 \~W1_3 \~W1_2 \~W1_1 \~W1_0) \
        _sub2
    I247 (JR_30 JW_30 \~R0_3 \~R0_2 \~R0_1 \~R0_0 \~R1_3 \~R1_2 \~R1_1 \
        \~R1_0 \~W0_3 \~W0_2 \~W0_1 \~W0_0 \~W1_3 \~W1_2 \~W1_1 \~W1_0) \
        _sub2
    I239 (JR_29 JW_29 \~R0_3 \~R0_2 \~R0_1 \~R0_0 \~R1_3 \~R1_2 \~R1_1 \
        \~R1_0 \~W0_3 \~W0_2 \~W0_1 \~W0_0 \~W1_3 \~W1_2 \~W1_1 \~W1_0) \
        _sub2
    I231 (JR_28 JW_28 \~R0_3 \~R0_2 \~R0_1 \~R0_0 \~R1_3 \~R1_2 \~R1_1 \
        \~R1_0 \~W0_3 \~W0_2 \~W0_1 \~W0_0 \~W1_3 \~W1_2 \~W1_1 \~W1_0) \
        _sub2
    I223 (JR_27 JW_27 \~R0_3 \~R0_2 \~R0_1 \~R0_0 \~R1_3 \~R1_2 \~R1_1 \
        \~R1_0 \~W0_3 \~W0_2 \~W0_1 \~W0_0 \~W1_3 \~W1_2 \~W1_1 \~W1_0) \
        _sub2
    I215 (JR_26 JW_26 \~R0_3 \~R0_2 \~R0_1 \~R0_0 \~R1_3 \~R1_2 \~R1_1 \
        \~R1_0 \~W0_3 \~W0_2 \~W0_1 \~W0_0 \~W1_3 \~W1_2 \~W1_1 \~W1_0) \
        _sub2
    I207 (JR_25 JW_25 \~R0_3 \~R0_2 \~R0_1 \~R0_0 \~R1_3 \~R1_2 \~R1_1 \
        \~R1_0 \~W0_3 \~W0_2 \~W0_1 \~W0_0 \~W1_3 \~W1_2 \~W1_1 \~W1_0) \
        _sub2
    I199 (JR_24 JW_24 \~R0_3 \~R0_2 \~R0_1 \~R0_0 \~R1_3 \~R1_2 \~R1_1 \
        \~R1_0 \~W0_3 \~W0_2 \~W0_1 \~W0_0 \~W1_3 \~W1_2 \~W1_1 \~W1_0) \
        _sub2
    I191 (JR_23 JW_23 \~R0_3 \~R0_2 \~R0_1 \~R0_0 \~R1_3 \~R1_2 \~R1_1 \
        \~R1_0 \~W0_3 \~W0_2 \~W0_1 \~W0_0 \~W1_3 \~W1_2 \~W1_1 \~W1_0) \
        _sub2
    I183 (JR_22 JW_22 \~R0_3 \~R0_2 \~R0_1 \~R0_0 \~R1_3 \~R1_2 \~R1_1 \
        \~R1_0 \~W0_3 \~W0_2 \~W0_1 \~W0_0 \~W1_3 \~W1_2 \~W1_1 \~W1_0) \
        _sub2