// Generated for: spectre
// Generated on: Apr 20 01:16:37 2015
// Design library name: 16nm_Tests
// Design cell name: 10T_TagMem_Test
// Design view name: config
simulator lang=spectre
global 0 vdd! vcc!
