// Generated for: spectre
// Generated on: Mar  8 18:17:13 2015
// Design library name: 16nm_Tests
// Design cell name: 10T_TagMem_Test
// Design view name: config
simulator lang=spectre
global 0 vcc! vdd!
