// Generated for: spectre
// Generated on: Mar  6 17:54:36 2015
// Design library name: 16nm_Tests
// Design cell name: DCache_Test
// Design view name: config
simulator lang=spectre
global 0 vdd! vcc!
