// Generated for: spectre
// Generated on: Apr  9 13:40:59 2015
// Design library name: 16nm_Tests
// Design cell name: 6T_SNMrwh_Test
// Design view name: schematic
simulator lang=spectre
global 0 vdd!
