// Generated for: spectre
// Generated on: May 22 00:29:13 2015
// Design library name: 20nm
// Design cell name: Dual_Supply_Word_Test
// Design view name: schematic
simulator lang=spectre
global 0 vdd! vcc!
