// Generated for: spectre
// Generated on: Apr  9 16:26:55 2015
// Design library name: 16nm_Tests
// Design cell name: HS_Dual_Cordic_Test
// Design view name: config
simulator lang=spectre
global 0 vdd! vcc!
