
// This is the Cadence AMS Designer(R) analog simulation control file. 
// It specifies the options and analyses for the Spectre analog solver. 

simulator lang=spectre 

ic MC_6TWrite_Test.ICHUNK.IARRAY0.ISRAM0.I7.I3.Q1=vdd \
MC_6TWrite_Test.ICHUNK.IARRAY0.ISRAM0.I7.I3.Q0=0 
simulatorOptions options temp=27 tnom=27 scale=1.0 scalem=1.0 reltol=1e-3 \
vabstol=1e-6 iabstol=1e-12 gmin=1e-12 rforce=1 maxnotes=5 maxwarns=5 \
digits=5 pivrel=1e-3 checklimitdest=psf 

tran tran stop=4n errpreset=conservative save=none write="spectre.ic" \
writefinal="spectre.fc" annotate=status maxiters=5 

finalTimeOP info what=oppoint where=rawfile

modelParameter info what=models where=rawfile 
element info what=inst where=rawfile 
outputParameter info what=output where=rawfile 
