// Generated for: spectre
// Generated on: Apr 27 04:41:49 2015
// Design library name: 16nm_Tests
// Design cell name: Compare24_PWR_Test
// Design view name: config
simulator lang=spectre
global 0 vdd! vcc! vddd!
