// Generated for: spectre
// Generated on: Apr 24 09:05:46 2015
// Design library name: 16nm_Tests
// Design cell name: levelconverter
// Design view name: schematic
simulator lang=spectre
global 0 vdd! vcc!
