// Generated for: spectre
// Generated on: May 20 21:23:25 2015
// Design library name: 16nm_Tests
// Design cell name: Dual_Supply_Test
// Design view name: schematic
simulator lang=spectre
global 0 vdd! vcc!
