// Generated for: spectre
// Generated on: Apr 27 03:47:26 2015
// Design library name: 16nm_Tests
// Design cell name: Compare24_Test
// Design view name: config
simulator lang=spectre
global 0 vdd! vcc! vddd!
